8
Lattice="5.289794 0 0 0 5.289794 0 0 0 5.289794 " PBC="1 1 1" Properties=species:S:1:pos:R:3:force:R:3 Energy="-34.368443376"
Si    0.00000e+00   0.00000e+00   0.00000e+00  7.88258e-15   7.88386e-15   7.88386e-15
Si    2.64490e+00   2.64490e+00   0.00000e+00  7.49401e-15   7.54952e-15   7.82707e-15
Si    0.00000e+00   2.64490e+00   2.64490e+00  7.88258e-15   7.54513e-15   7.53507e-15
Si    2.64490e+00   0.00000e+00   2.64490e+00  7.49401e-15   7.82707e-15   7.54952e-15
Si    1.32245e+00   1.32245e+00   1.32245e+00  5.55112e-16   5.37976e-16   5.06680e-16
Si    3.96735e+00   3.96735e+00   1.32245e+00 -1.58775e-14  -1.59842e-14   6.59054e-16
Si    1.32245e+00   3.96735e+00   3.96735e+00  6.66134e-16  -1.59872e-14  -1.59872e-14
Si    3.96735e+00   1.32245e+00   3.96735e+00 -1.58775e-14   6.59054e-16  -1.59287e-14
