8
Lattice="5.800308 0 0 0 5.800308 0 0 0 5.800308 " PBC="1 1 1" Properties=species:S:1:pos:R:3:force:R:3 Energy="-32.8326969613"
Si    0.00000e+00   0.00000e+00   0.00000e+00 -4.66294e-15  -4.04583e-16  -3.61673e-16
Si    2.90015e+00   2.90015e+00   0.00000e+00 -3.33067e-16  -4.44089e-16  -5.55112e-16
Si    0.00000e+00   2.90015e+00   2.90015e+00 -4.66294e-15  -3.90280e-16  -1.43032e-16
Si    2.90015e+00   0.00000e+00   2.90015e+00 -2.55351e-15  -2.44249e-15   1.88738e-15
Si    1.45008e+00   1.45008e+00   1.45008e+00  0.00000e+00  -5.04871e-29  -5.13050e-25
Si    4.35023e+00   4.35023e+00   1.45008e+00  5.12133e-15   6.94740e-16   1.25326e-16
Si    1.45008e+00   4.35023e+00   4.35023e+00  2.10942e-15   2.77556e-15  -1.77636e-15
Si    4.35023e+00   1.45008e+00   4.35023e+00  5.23235e-15   1.43032e-17   3.61673e-16
