64
Lattice="10.470968 0 0 0 10.470968 0 0 0 10.470968 " PBC="1 1 1" Properties=species:S:1:pos:R:3:force:R:3 Energy="-271.967448816"
Si    1.04520e+01   1.04544e+01   1.04652e+01  9.25920e-01   3.07990e-01   1.38881e-01
Si    2.62860e+00   2.61026e+00   1.04442e+01 -4.79235e-01   1.47474e-01   6.20508e-01
Si    2.72689e-02   2.61603e+00   2.62166e+00 -4.61463e-01   3.21952e-01   2.00584e-01
Si    2.63577e+00   1.04615e+01   2.63391e+00  1.34923e-01   4.50015e-01   1.05467e-01
Si    1.31566e+00   1.29696e+00   1.33832e+00  1.18695e-01  -9.70269e-02  -7.94180e-01
Si    3.93329e+00   3.93968e+00   1.28909e+00 -3.02537e-01  -4.41208e-01   2.76983e-01
Si    1.32517e+00   3.93670e+00   3.94188e+00  1.88676e-01  -4.70419e-01  -3.37851e-01
Si    3.95297e+00   1.33181e+00   3.94649e+00 -3.80833e-01  -4.66763e-01   4.26318e-02
Si    5.22962e+00   1.04613e+01   1.04577e+01  2.56615e-01   3.01751e-01  -1.94497e-01
Si    7.85236e+00   2.59410e+00   1.04703e+01  3.10645e-01   5.46675e-01   2.94284e-01
Si    5.22568e+00   2.62642e+00   2.62731e+00  2.61385e-01   3.98156e-01  -2.27786e-01
Si    7.83985e+00   1.04659e+01   2.64413e+00  4.19200e-01   2.20295e-01  -1.08352e+00
Si    6.52708e+00   1.33376e+00   1.29837e+00  5.07902e-02  -7.39221e-01   4.15754e-01
Si    9.15627e+00   3.94882e+00   1.32879e+00  6.55934e-01  -7.13545e-01  -7.36613e-01
Si    6.56279e+00   3.93256e+00   3.93205e+00 -2.77620e-01   1.30669e-01  -1.55775e-01
Si    9.15629e+00   1.31760e+00   3.92767e+00  2.31702e-01  -1.49381e-01  -6.42776e-02
Si    2.09672e-02   5.25763e+00   1.04704e+01 -6.73042e-01  -4.96795e-01  -2.30279e-01
Si    2.60038e+00   7.84736e+00   1.04693e+01  6.28001e-01  -1.74089e-03   4.11229e-02
Si    1.04521e+01   7.83406e+00   2.61802e+00  3.50171e-01   1.15378e-01   9.86760e-03
Si    2.62064e+00   5.22166e+00   2.61241e+00  9.23101e-02   4.34433e-01  -2.63653e-02
Si    1.30322e+00   6.54224e+00   1.29760e+00  2.20365e-01   6.05320e-02   5.16801e-01
Si    3.92358e+00   9.18149e+00   1.30000e+00 -7.36366e-02  -5.39357e-01   2.20558e-02
Si    1.31724e+00   9.15814e+00   3.91281e+00 -2.15357e-01  -3.49862e-01   2.09376e-01
Si    3.94466e+00   6.55868e+00   3.91207e+00 -5.88899e-01  -2.88703e-01   4.24525e-01
Si    5.21622e+00   5.25250e+00   1.35740e-02  3.52897e-01  -5.50912e-01  -5.76471e-01
Si    7.87821e+00   7.87868e+00   1.45786e-03 -9.01237e-01  -4.86487e-01   3.59541e-02
Si    5.22297e+00   7.85427e+00   2.61694e+00  4.18235e-01   8.76511e-02  -5.47585e-01
Si    7.88394e+00   5.22988e+00   2.61067e+00 -8.55881e-01   2.72226e-01   2.68874e-01
Si    6.53146e+00   6.51690e+00   1.29381e+00  5.81713e-01   8.13604e-01   3.76507e-01
Si    9.18472e+00   9.15136e+00   1.28652e+00 -5.36565e-01   3.65446e-01   9.30421e-01
Si    6.56351e+00   9.14332e+00   3.90783e+00 -2.80024e-01  -2.12097e-01   3.79935e-01
Si    9.15820e+00   6.52398e+00   3.93662e+00  9.11512e-02   3.00427e-01   2.59134e-01
Si    1.48887e-03   1.04612e+01   5.22294e+00 -2.15008e-01  -1.10203e-01  -9.08838e-02
Si    2.62943e+00   2.63658e+00   5.26139e+00 -2.07965e-01  -3.79278e-01  -3.60986e-01
Si    1.04582e+01   2.58922e+00   7.87632e+00 -2.32498e-02   1.96141e-01  -6.70183e-01
Si    2.63517e+00   2.80495e-03   7.85338e+00 -4.81365e-01   1.64658e-01  -3.26040e-01
Si    1.29178e+00   1.29820e+00   6.52332e+00  3.47920e-01   1.08989e-01   5.09041e-01
Si    3.93605e+00   3.92350e+00   6.54055e+00 -1.11221e-01   5.98039e-01   2.74728e-01
Si    1.29147e+00   3.91060e+00   9.14514e+00  1.13128e-01   9.87601e-02   4.40552e-01
Si    3.91266e+00   1.31417e+00   9.15289e+00  4.25880e-01  -2.88105e-01  -1.43213e-02
Si    5.26382e+00   1.04442e+01   5.22052e+00 -3.52340e-01   1.35276e-01  -1.76260e-01
Si    7.83970e+00   2.60378e+00   5.23015e+00  1.93201e-01   1.86079e-01   4.06757e-01
Si    5.21343e+00   2.59883e+00   7.82945e+00  3.53079e-01   1.27278e-01   3.64145e-01
Si    7.87362e+00   2.31353e-02   7.88261e+00 -2.60304e-01  -4.27524e-01  -9.75985e-01
Si    6.52202e+00   1.28340e+00   6.53603e+00  5.56697e-01   1.67054e-01   2.36017e-01
Si    9.17814e+00   3.93315e+00   6.53400e+00 -4.32897e-01  -2.67594e-01   4.12091e-01
Si    6.52885e+00   3.89422e+00   9.18478e+00 -2.25475e-01   3.69878e-01  -3.55296e-01
Si    9.16158e+00   1.29365e+00   9.17499e+00  6.93311e-02   2.49201e-01   2.26061e-01
Si    2.81114e-02   5.21541e+00   5.22382e+00 -3.39522e-01   4.58197e-01   2.49769e-01
Si    2.60406e+00   7.84170e+00   5.25737e+00  4.25750e-01   2.35813e-01  -6.61162e-01
Si    1.04561e+01   7.86878e+00   7.87744e+00  5.87645e-01  -5.89356e-01  -3.80117e-01
Si    2.60350e+00   5.22788e+00   7.87170e+00  4.29647e-01  -2.12512e-01  -3.75605e-01
Si    1.32962e+00   6.52651e+00   6.53828e+00 -7.96293e-01   2.56861e-01   6.01570e-01
Si    3.91776e+00   9.18269e+00   6.52653e+00  3.73822e-01  -5.63272e-01   3.44766e-01
Si    1.33825e+00   9.16375e+00   9.16265e+00 -5.39983e-01   1.59438e-01  -4.69399e-02
Si    3.93439e+00   6.53236e+00   9.15680e+00 -4.86097e-01   2.54090e-01   2.61541e-01
Si    5.24713e+00   5.25867e+00   5.24485e+00 -1.05115e-01  -4.08219e-01  -3.49363e-01
Si    7.85163e+00   7.86006e+00   5.26072e+00  1.55902e-01  -3.61716e-01  -5.08993e-01
Si    5.23089e+00   7.84887e+00   7.87315e+00  4.35805e-02   1.21382e-01  -8.33796e-01
Si    7.82811e+00   5.24332e+00   7.86813e+00  3.47376e-01  -6.11972e-01  -5.93602e-02
Si    6.55588e+00   6.53477e+00   6.54104e+00 -3.54255e-01   4.87171e-01   4.28152e-01
Si    9.16782e+00   9.14690e+00   6.54793e+00 -8.13800e-02   6.66720e-01   2.13083e-01
Si    6.56323e+00   9.16213e+00   9.13205e+00 -1.58237e-01   7.76915e-02   6.50262e-01
Si    9.13427e+00   6.55463e+00   9.17115e+00  4.84748e-01  -1.70122e-01  -2.77089e-02
