64
Lattice="9.906144 0 0 0 9.906144 0 0 0 9.906144 " PBC="1 1 1" Properties=species:S:1:pos:R:3:force:R:3 Energy="-244.718091592"
Si    1.28742e-03   9.89957e+00   9.90351e+00  4.30734e-02   2.73992e-01  -1.10673e-01
Si    2.48066e+00   2.46728e+00   2.57890e-03 -9.75995e-02   3.11237e-01  -8.84804e-02
Si    2.29726e-03   2.47881e+00   2.47688e+00  5.00499e-02   1.32007e-01   5.66353e-02
Si    2.48137e+00   4.47601e-03   2.47989e+00 -2.49698e-01  -9.40601e-02  -1.28726e-01
Si    1.23360e+00   1.24202e+00   1.23579e+00  4.89895e-02  -2.15146e-01   9.13871e-02
Si    3.72231e+00   3.71743e+00   1.23168e+00 -2.80944e-01  -3.64637e-02   1.21993e-01
Si    1.24624e+00   3.71585e+00   3.71918e+00 -3.05085e-01  -2.13027e-02   2.09267e-02
Si    3.70906e+00   1.23393e+00   3.71977e+00  2.49744e-01   1.42215e-01  -1.35708e-01
Si    4.94730e+00   9.90563e+00   2.83851e-03  2.89836e-01   4.45776e-02  -1.01836e-01
Si    7.43067e+00   2.47145e+00   3.70085e-03 -9.38004e-03   4.49215e-01  -4.58739e-02
Si    4.94831e+00   2.47583e+00   2.47112e+00  8.17757e-02  -1.20127e-01   1.13785e-01
Si    7.42993e+00   9.90395e+00   2.48369e+00 -5.03228e-02   3.32699e-02  -1.58348e-01
Si    6.19775e+00   1.24059e+00   1.23170e+00 -1.75623e-01  -2.03007e-01   2.41795e-01
Si    8.66905e+00   3.72125e+00   1.24567e+00 -3.00221e-02  -1.78942e-01  -1.50163e-01
Si    6.19329e+00   3.71365e+00   3.71124e+00 -2.12626e-02   6.09630e-02  -1.17357e-01
Si    8.66926e+00   1.24264e+00   3.70985e+00  7.84070e-02  -9.36623e-02   8.92958e-02
Si    2.14102e-03   4.95451e+00   6.20574e-03 -2.22410e-03  -2.30789e-04  -1.93611e-01
Si    2.47819e+00   7.43416e+00   9.90035e+00  2.13192e-03  -9.20301e-02   3.26867e-01
Si    4.22995e-03   7.43743e+00   2.47609e+00 -1.86470e-01  -1.04987e-01   3.57878e-02
Si    2.46833e+00   4.94785e+00   2.47581e+00  3.45558e-01   8.19351e-02  -3.77239e-02
Si    1.23956e+00   6.19337e+00   1.24263e+00  4.05973e-02   1.30574e-01  -1.25100e-01
Si    3.71701e+00   8.67323e+00   1.23587e+00 -1.01276e-01  -1.76542e-01   1.49025e-01
Si    1.23950e+00   8.66748e+00   3.71977e+00  1.30971e-01   7.73198e-02  -1.14312e-01
Si    3.71665e+00   6.19096e+00   3.71414e+00 -2.00493e-01  -1.31631e-01  -1.20211e-01
Si    4.95288e+00   4.95701e+00   4.35808e-03  2.27133e-02   7.15313e-02  -3.17105e-01
Si    7.42362e+00   7.42175e+00   3.53989e-03  2.23055e-01   2.42321e-01  -1.75245e-01
Si    4.94926e+00   7.42759e+00   2.48110e+00  9.30559e-02   5.29194e-02  -2.14468e-01
Si    7.43274e+00   4.95989e+00   2.47227e+00 -1.95971e-01  -1.54557e-01   5.26526e-02
Si    6.19350e+00   6.19202e+00   1.23513e+00 -1.82839e-01   6.34457e-03   2.37454e-01
Si    8.67091e+00   8.67578e+00   1.23205e+00 -1.86310e-01  -2.35186e-01   1.34919e-01
Si    6.18554e+00   8.66641e+00   3.71781e+00 -5.29442e-04   3.11438e-02  -9.13648e-02
Si    8.66699e+00   6.18255e+00   3.71119e+00  1.06344e-01   3.51997e-01   1.08752e-01
Si    6.70937e-03   3.83273e-03   4.95002e+00 -2.68375e-01  -6.29223e-02  -1.02777e-01
Si    2.47928e+00   2.47548e+00   4.94680e+00 -3.70285e-02  -2.81111e-03   2.99192e-01
Si    5.35077e-03   2.47330e+00   7.43007e+00  7.50449e-02  -6.33640e-02   2.13881e-02
Si    2.48410e+00   5.36801e-04   7.42992e+00 -1.01655e-01  -7.57599e-02  -6.12695e-02
Si    1.23728e+00   1.22930e+00   6.18542e+00  2.06998e-01   2.25830e-01   1.32843e-01
Si    3.71490e+00   3.72325e+00   6.18879e+00  4.78044e-02  -1.55167e-01  -1.09926e-02
Si    1.24499e+00   3.71934e+00   8.66077e+00 -5.92280e-02  -1.71109e-01   3.00663e-01
Si    3.71359e+00   1.23479e+00   8.67346e+00  1.14998e-01   6.50790e-02  -1.31667e-01
Si    4.95540e+00   2.90894e-03   4.95086e+00  3.15315e-02   5.79449e-02   7.45143e-02
Si    7.43120e+00   2.47578e+00   4.94850e+00 -5.11734e-02  -2.76353e-02   2.07871e-01
Si    4.95255e+00   2.47832e+00   7.43321e+00 -2.90344e-01  -7.24779e-02  -1.12501e-01
Si    7.43350e+00   9.90614e+00   7.43151e+00  4.19207e-02   1.66842e-01   1.72721e-02
Si    6.18815e+00   1.23874e+00   6.20013e+00  1.32933e-01   2.37491e-02  -1.64979e-01
Si    8.67393e+00   3.70821e+00   6.19797e+00 -9.39803e-02   9.20118e-02  -1.17630e-01
Si    6.18327e+00   3.70949e+00   8.66301e+00  2.20486e-01   1.23767e-01   2.94137e-01
Si    8.66559e+00   1.24781e+00   8.67375e+00  1.54059e-01  -2.70678e-01  -1.00982e-01
Si    2.55832e-03   4.95727e+00   4.96047e+00  3.56281e-03  -1.67890e-01  -6.76654e-02
Si    2.48001e+00   7.42767e+00   4.94864e+00 -9.52251e-03   1.57995e-02   1.13143e-01
Si    1.53874e-03   7.43057e+00   7.43308e+00 -7.09303e-02   7.66023e-02  -6.76942e-02
Si    2.47907e+00   4.95494e+00   7.43223e+00  1.32983e-02   7.07094e-02  -1.44154e-01
Si    1.24238e+00   6.19243e+00   6.19390e+00  2.41643e-02   8.24560e-02   3.44986e-02
Si    3.71978e+00   8.67084e+00   6.18341e+00 -2.48715e-02  -1.14122e-01   1.19853e-01
Si    1.24719e+00   8.66629e+00   8.67289e+00 -1.16289e-01   9.31348e-02  -2.37121e-01
Si    3.70640e+00   6.19655e+00   8.66702e+00  1.31374e-01  -2.17254e-01   1.66957e-01
Si    4.95420e+00   4.95660e+00   4.94599e+00  1.00956e-01  -6.40652e-02   8.03657e-02
Si    7.42309e+00   7.43265e+00   4.94966e+00  2.52380e-01  -8.27769e-02  -5.62635e-02
Si    4.94608e+00   7.42257e+00   7.43427e+00  2.62375e-01   1.40619e-01  -2.36209e-01
Si    7.43381e+00   4.95047e+00   7.43527e+00 -1.58582e-01  -2.00022e-01  -2.01308e-01
Si    6.20029e+00   6.18718e+00   6.18650e+00 -1.97767e-01   3.63328e-02   1.98537e-01
Si    8.66593e+00   8.67497e+00   6.18624e+00  1.26393e-01  -1.46583e-01   1.70573e-02
Si    6.19540e+00   8.67184e+00   8.66507e+00 -1.89568e-01  -1.57270e-01   1.11405e-01
Si    8.66191e+00   6.18518e+00   8.66248e+00  1.98783e-01   1.45344e-01   2.68547e-01
