8
Lattice="4.8879 0 0 0 4.8879 0 0 0 4.8879 " PBC="1 1 1" Properties=species:S:1:pos:R:3:force:R:3 Energy="-29.3692121943"
Si    0.00000e+00   0.00000e+00   0.00000e+00  2.66454e-15  -8.32667e-17   4.02456e-16
Si    2.44395e+00   2.44395e+00   0.00000e+00  1.62370e-15   7.21645e-16   8.46653e-16
Si    0.00000e+00   2.44395e+00   2.44395e+00  0.00000e+00   3.60822e-16   2.01228e-16
Si    2.44395e+00   0.00000e+00   2.44395e+00  1.33227e-15  -4.44089e-16   8.74350e-16
Si    1.22198e+00   1.22198e+00   1.22198e+00  4.44089e-15   1.80411e-16   1.87350e-16
Si    3.66593e+00   3.66593e+00   1.22198e+00  9.29812e-16  -2.67841e-15  -3.22659e-16
Si    1.22198e+00   3.66593e+00   3.66593e+00  5.55112e-17   3.96905e-15   8.87786e-16
Si    3.66593e+00   1.22198e+00   3.66593e+00 -2.60902e-15  -9.43690e-16   6.37999e-16
