8
Lattice="5.278932 0 0 0 5.278932 0 0 0 5.278932 " PBC="1 1 1" Properties=species:S:1:pos:R:3:force:R:3 Energy="-34.3150989966"
Si    0.00000e+00   0.00000e+00   0.00000e+00 -7.43849e-15  -3.08536e-16  -3.08536e-16
Si    2.63947e+00   2.63947e+00   0.00000e+00 -3.77470e-15  -3.71925e-15  -3.38618e-15
Si    0.00000e+00   2.63947e+00   2.63947e+00 -3.33067e-15  -3.76955e-15  -3.72476e-15
Si    2.63947e+00   0.00000e+00   2.63947e+00 -3.71925e-15  -3.44169e-15  -3.71925e-15
Si    1.31973e+00   1.31973e+00   1.31973e+00  1.11022e-16   1.11052e-16   2.95950e-20
Si    3.95920e+00   3.95920e+00   1.31973e+00  7.78022e-15   7.78231e-15  -7.75006e-16
Si    1.31973e+00   3.95920e+00   3.95920e+00  2.77550e-15   4.16334e-15   4.16334e-15
Si    3.95920e+00   1.31973e+00   3.95920e+00  7.78016e-15  -7.75065e-16   7.83782e-15
