64
Lattice="10.905448 0 0 0 10.905448 0 0 0 10.905448 " PBC="1 1 1" Properties=species:S:1:pos:R:3:force:R:3 Energy="-277.446674315"
Si    1.09013e+01   3.75116e-03   1.08990e+01  9.37902e-02  -7.77850e-02   1.63257e-01
Si    2.71936e+00   2.72473e+00   1.08983e+01  8.49100e-02   1.12331e-01   4.17075e-02
Si    1.08984e+01   2.73492e+00   2.72366e+00  1.13957e-01  -1.11582e-01  -9.30947e-02
Si    2.73102e+00   1.69678e-03   2.72684e+00 -8.20251e-02   3.79116e-02  -9.79166e-02
Si    1.36537e+00   1.36594e+00   1.35827e+00 -1.15004e-01  -2.58657e-02   9.27486e-02
Si    4.09141e+00   4.09034e+00   1.35844e+00 -7.26716e-02  -5.36836e-02   7.13900e-02
Si    1.36722e+00   4.08430e+00   4.08264e+00 -5.96582e-02   1.41268e-01   1.14557e-01
Si    4.08837e+00   1.36419e+00   4.08131e+00  4.90678e-02   7.39820e-02   1.72289e-01
Si    5.45042e+00   9.02758e-03   4.80259e-03  1.03716e-01  -1.50869e-01  -1.77745e-02
Si    8.17272e+00   2.73302e+00   1.09051e+01  1.60930e-01  -1.56646e-01   6.64260e-02
Si    5.45996e+00   2.73295e+00   2.73144e+00 -9.66725e-02  -4.75738e-03  -9.10275e-02
Si    8.17938e+00   1.91775e-04   2.72805e+00 -5.59018e-02  -5.18968e-02  -1.12964e-02
Si    6.81305e+00   1.36864e+00   1.36450e+00  7.92309e-02  -1.54570e-02   4.13030e-02
Si    9.53888e+00   4.09573e+00   1.35743e+00  7.36410e-04   2.73865e-03   2.36287e-03
Si    6.82325e+00   4.09918e+00   4.08338e+00 -5.69927e-02  -9.75422e-02   1.93098e-01
Si    9.54774e+00   1.36332e+00   4.08596e+00 -1.11007e-01   3.88345e-02   8.49579e-02
Si    1.09018e+01   5.46050e+00   1.09008e+01  8.65980e-02  -4.52074e-02   1.50904e-01
Si    2.72441e+00   8.18567e+00   1.09012e+01  1.55611e-01  -1.08320e-01   1.70129e-01
Si    4.02567e-04   8.17623e+00   2.73418e+00  2.14938e-02   8.92165e-02  -1.18378e-01
Si    2.73175e+00   5.45682e+00   2.73044e+00 -1.12717e-01  -1.29900e-01  -1.88649e-01
Si    1.36161e+00   6.82022e+00   1.36720e+00  5.04245e-02  -3.26553e-02  -5.95789e-02
Si    4.09419e+00   9.54989e+00   1.36651e+00 -6.55217e-02  -1.12715e-01  -6.43163e-02
Si    1.37034e+00   9.54164e+00   4.08225e+00 -8.62003e-02   2.32618e-02   1.29903e-01
Si    4.08761e+00   6.80985e+00   4.08056e+00  1.01359e-01   7.60535e-02   1.59499e-01
Si    5.45088e+00   5.45275e+00   7.52086e-04  1.30840e-01  -4.99167e-02  -2.09266e-02
Si    8.17053e+00   8.17418e+00   1.48251e-03  1.65320e-01   4.52145e-02  -1.53129e-02
Si    5.45023e+00   8.17169e+00   2.72269e+00 -1.57337e-02   1.27285e-01   5.07921e-02
Si    8.17847e+00   5.45213e+00   2.72455e+00  7.65372e-02   1.95324e-01  -4.40556e-02
Si    6.81132e+00   6.82137e+00   1.36156e+00  3.36501e-02  -1.79354e-01   3.55914e-02
Si    9.54326e+00   9.53750e+00   1.36276e+00 -3.52900e-02   3.78365e-02  -1.29871e-04
Si    6.80955e+00   9.53502e+00   4.09379e+00  9.15764e-02   2.57346e-02  -2.23483e-02
Si    9.54756e+00   6.81972e+00   4.09211e+00 -7.23026e-02  -1.68196e-01   3.78190e-03
Si    1.08998e+01   1.08996e+01   5.45251e+00  1.76824e-01   6.70191e-02  -1.08431e-02
Si    2.72960e+00   2.73381e+00   5.45487e+00  3.45876e-02  -1.13760e-01  -1.34120e-01
Si    1.08990e+01   2.73064e+00   8.17954e+00  8.82115e-02  -2.04076e-03  -6.75987e-02
Si    2.71836e+00   1.08957e+01   8.18106e+00  1.58711e-01   1.69815e-01  -3.45386e-02
Si    1.36856e+00   1.37177e+00   6.81032e+00 -1.50482e-01  -1.43964e-01   8.72697e-02
Si    4.08936e+00   4.08334e+00   6.82172e+00  9.11764e-02   1.24842e-01  -4.14835e-02
Si    1.35551e+00   4.09781e+00   9.54114e+00  1.60499e-02  -1.07782e-01  -1.76728e-04
Si    4.09051e+00   1.35812e+00   9.54960e+00 -9.42778e-02   4.61110e-02  -1.97606e-01
Si    5.44627e+00   1.09043e+01   5.45488e+00  7.88295e-02   6.10482e-02   1.37477e-02
Si    8.18157e+00   2.73067e+00   5.45747e+00 -1.26666e-02  -3.38262e-02  -1.85655e-01
Si    5.45761e+00   2.72497e+00   8.18250e+00 -8.36568e-02  -3.91633e-02   5.91968e-02
Si    8.17640e+00   1.11227e-03   8.18463e+00  2.21444e-02  -1.36727e-02   9.80964e-03
Si    6.81871e+00   1.37090e+00   6.81773e+00 -5.02585e-02  -1.50651e-01  -3.72615e-02
Si    9.53661e+00   4.09294e+00   6.81367e+00  4.77451e-02   1.34424e-02   1.01159e-01
Si    6.82119e+00   4.08141e+00   9.54693e+00 -1.62799e-01   1.87280e-01  -5.79960e-02
Si    9.54703e+00   1.36666e+00   9.54650e+00 -1.84405e-01   3.49312e-02  -6.23188e-02
Si    1.11448e-03   5.45026e+00   5.45695e+00  3.65216e-03  -5.55321e-02  -1.52526e-01
Si    2.72902e+00   8.17398e+00   5.44544e+00 -4.11081e-03  -4.41367e-04   1.01660e-01
Si    1.88286e-03   8.18398e+00   8.18396e+00  8.12555e-02  -8.34423e-02  -3.09369e-02
Si    2.72197e+00   5.44753e+00   8.17796e+00  1.17754e-01   8.87894e-02   6.00530e-02
Si    1.36119e+00   6.80785e+00   6.81421e+00  3.79630e-02   1.72319e-01   4.08264e-02
Si    4.09393e+00   9.53502e+00   6.82225e+00 -1.92663e-01   8.13622e-02  -1.36970e-01
Si    1.36828e+00   9.54290e+00   9.55067e+00 -1.76475e-01   1.96949e-02  -1.08477e-01
Si    4.09781e+00   6.81357e+00   9.54512e+00 -2.19639e-01   2.23985e-02  -8.50735e-02
Si    5.45397e+00   5.45604e+00   5.45342e+00 -4.65492e-02  -8.58374e-02  -3.11225e-02
Si    8.18237e+00   8.16987e+00   5.45753e+00  3.48034e-04   1.80987e-01  -7.57821e-02
Si    5.44693e+00   8.18171e+00   8.17792e+00  1.79039e-01  -1.49416e-01   2.94019e-02
Si    8.17394e+00   5.45145e+00   8.18284e+00  8.61221e-02   6.68141e-02  -7.04167e-03
Si    6.81900e+00   6.81832e+00   6.80991e+00 -1.04285e-01  -4.30221e-02   1.84779e-01
Si    9.54175e+00   9.53984e+00   6.82157e+00 -5.67581e-02   1.88408e-02  -1.12469e-02
Si    6.81122e+00   9.53467e+00   9.54670e+00 -3.25763e-02   1.69076e-01  -1.60602e-02
Si    9.54932e+00   6.81745e+00   9.54613e+00 -2.10861e-01   4.31357e-02  -1.02960e-01
