64
Lattice="10.601312 0 0 0 10.601312 0 0 0 10.601312 " PBC="1 1 1" Properties=species:S:1:pos:R:3:force:R:3 Energy="-275.336510017"
Si    1.06007e+01   1.90669e-03   2.35455e-03  4.66394e-02  -2.97714e-02  -3.79453e-02
Si    2.65140e+00   2.65104e+00   5.61664e-04 -2.79579e-02   2.04921e-02  -4.19431e-02
Si    1.05997e+01   2.64973e+00   2.64905e+00  6.53219e-03   1.55240e-02   7.72028e-02
Si    2.64807e+00   1.06002e+01   2.65000e+00  6.04522e-02   4.00483e-02  -4.51179e-03
Si    1.32508e+00   1.32712e+00   1.32532e+00  8.88463e-03  -1.65083e-02   1.21803e-03
Si    3.97582e+00   3.97534e+00   1.32616e+00 -1.67394e-02   7.43284e-03  -4.46644e-03
Si    1.32519e+00   3.97721e+00   3.97793e+00 -2.72721e-02  -3.27323e-02  -7.47319e-02
Si    3.97739e+00   1.32415e+00   3.97576e+00 -6.05534e-02  -3.88683e-03   5.88424e-03
Si    5.30148e+00   2.38985e-03   2.51659e-03 -6.98371e-03  -5.70074e-02  -6.89566e-02
Si    7.95071e+00   2.65191e+00   1.21042e-03  6.94243e-03  -1.78597e-02  -2.60685e-02
Si    5.29847e+00   2.65188e+00   2.65257e+00  4.79911e-02  -4.27001e-02  -5.47414e-02
Si    7.95159e+00   1.05998e+01   2.64896e+00 -1.89226e-02   6.50186e-02  -9.27928e-03
Si    6.62536e+00   1.32638e+00   1.32259e+00  1.16884e-02   2.19709e-02   9.97866e-02
Si    9.27447e+00   3.97519e+00   1.32569e+00  4.75333e-02  -9.97329e-03  -3.00654e-02
Si    6.62384e+00   3.97714e+00   3.97400e+00  6.76659e-02  -3.74280e-02   2.68985e-02
Si    9.27398e+00   1.32316e+00   3.97810e+00  2.25886e-02   3.18577e-02  -5.62849e-02
Si    1.06004e+01   5.30014e+00   1.06012e+01 -1.38475e-02   1.89406e-02  -7.86537e-04
Si    2.64989e+00   7.94990e+00   3.68435e-04  4.80889e-02  -1.22616e-02   1.80647e-02
Si    1.06006e+01   7.94966e+00   2.65002e+00  1.89436e-02   5.57709e-02  -2.80651e-03
Si    2.65086e+00   5.29975e+00   2.65111e+00 -1.98124e-03   1.96466e-02   5.13760e-03
Si    1.32473e+00   6.62471e+00   1.32617e+00  4.58755e-03  -7.97852e-03  -1.29589e-02
Si    3.97772e+00   9.27657e+00   1.32607e+00 -4.83006e-02  -7.21577e-03  -1.62180e-02
Si    1.32593e+00   9.27701e+00   3.97492e+00 -3.29426e-02  -5.06000e-02  -1.22877e-02
Si    3.97670e+00   6.62654e+00   3.97527e+00 -3.18726e-03  -1.57373e-02  -2.01823e-02
Si    5.29815e+00   5.30080e+00   1.06011e+01  4.62411e-02   4.31324e-04   5.01701e-03
Si    7.95174e+00   7.95122e+00   2.47856e-03 -4.65378e-03   7.18433e-03  -7.86841e-02
Si    5.30218e+00   7.95160e+00   2.64989e+00  1.25624e-02  -7.70533e-03   1.09634e-02
Si    7.95229e+00   5.29818e+00   2.64778e+00 -1.84275e-02   7.82281e-02   6.52479e-02
Si    6.62708e+00   6.62591e+00   1.32409e+00 -2.73583e-02  -2.61202e-02   1.48901e-02
Si    9.27637e+00   9.27800e+00   1.32442e+00  1.73413e-02  -4.15212e-02   2.52475e-02
Si    6.62780e+00   9.27803e+00   3.97402e+00 -6.92027e-04  -5.76725e-02   2.90256e-02
Si    9.27695e+00   6.62820e+00   3.97643e+00 -2.04113e-02  -8.42028e-02  -3.27527e-02
Si    5.35480e-05   1.06000e+01   5.29879e+00 -2.00336e-02  -4.21439e-03   5.69600e-02
Si    2.64984e+00   2.65241e+00   5.29926e+00  3.04057e-02  -3.92450e-02   1.51229e-02
Si    1.05998e+01   2.64957e+00   7.95109e+00  4.92395e-03   7.41255e-03   8.84430e-03
Si    2.65078e+00   5.95058e-04   7.94990e+00 -1.72905e-02   7.81119e-03  -2.20179e-03
Si    1.32306e+00   1.32781e+00   6.62337e+00  3.05416e-02  -4.44341e-02   2.04858e-02
Si    3.97561e+00   3.97457e+00   6.62664e+00  1.52891e-02   9.98362e-03  -1.12815e-02
Si    1.32331e+00   3.97790e+00   9.27397e+00  1.77046e-02  -6.93478e-02   5.13414e-02
Si    3.97715e+00   1.32531e+00   9.27621e+00 -2.87907e-02  -7.52607e-03   9.63130e-03
Si    5.30322e+00   1.06010e+01   5.30038e+00 -1.54254e-03   1.60663e-02  -3.90985e-03
Si    7.95239e+00   2.65190e+00   5.30274e+00 -6.71015e-02  -1.34568e-02  -4.63175e-02
Si    5.30211e+00   2.64791e+00   7.95091e+00 -4.16731e-03   5.87014e-02   2.01822e-02
Si    7.95202e+00   1.06003e+01   7.95363e+00 -3.81137e-02   1.70556e-02  -9.43262e-03
Si    6.62609e+00   1.32516e+00   6.62697e+00  4.49928e-02  -2.04290e-02  -8.61446e-03
Si    9.27722e+00   3.97444e+00   6.62478e+00 -7.98689e-03   4.96046e-02   4.07312e-02
Si    6.62694e+00   3.97638e+00   9.27736e+00 -2.65471e-02   1.69732e-03  -3.15110e-02
Si    9.27608e+00   1.32473e+00   9.27866e+00 -9.89804e-03   2.14400e-02  -1.21030e-02
Si    6.43166e-04   5.30084e+00   5.30086e+00 -2.00807e-02   2.48347e-02   7.26881e-03
Si    2.64955e+00   7.94947e+00   5.29837e+00  3.84327e-02   5.39050e-02   3.30020e-02
Si    1.06003e+01   7.95001e+00   7.95163e+00  4.16875e-02   4.05600e-02  -8.19926e-03
Si    2.64894e+00   5.29951e+00   7.95142e+00  3.78770e-03   2.79154e-02  -5.59454e-02
Si    1.32477e+00   6.62768e+00   6.62464e+00  5.77469e-03  -3.72309e-02   2.76450e-02
Si    3.97767e+00   9.27728e+00   6.62435e+00 -7.06025e-02  -8.38117e-03  -3.26303e-02
Si    1.32677e+00   9.27473e+00   9.27807e+00 -4.54705e-02   4.39921e-02  -2.54774e-02
Si    3.97480e+00   6.62356e+00   9.27391e+00 -6.80491e-03   5.45915e-02   1.37618e-02
Si    5.30152e+00   5.30036e+00   5.29903e+00 -3.88396e-02   1.15939e-03   3.23582e-02
Si    7.95197e+00   7.94936e+00   5.30121e+00 -3.20001e-02   5.19060e-02  -6.47327e-03
Si    5.29851e+00   7.95310e+00   7.94837e+00  1.90748e-02  -7.78432e-02   1.30885e-02
Si    7.95110e+00   5.30267e+00   7.95010e+00  2.55669e-03  -4.60028e-02  -9.47033e-03
Si    6.62523e+00   6.62503e+00   6.62418e+00 -1.12207e-02   2.53036e-02   1.87438e-02
Si    9.27450e+00   9.27560e+00   6.62830e+00  3.85130e-02   4.93516e-03  -4.05568e-02
Si    6.62332e+00   9.27387e+00   9.27452e+00  2.77375e-02   3.63373e-02   6.64427e-02
Si    9.27644e+00   6.62665e+00   9.27376e+00 -1.93833e-02  -1.07652e-02   6.96021e-02
