64
Lattice="11.318204 0 0 0 11.318204 0 0 0 11.318204 " PBC="1 1 1" Properties=species:S:1:pos:R:3:force:R:3 Energy="-271.205779705"
Si    2.82790e-03   2.27321e-02   2.99247e-02 -1.92074e-01  -4.24290e-01  -4.14974e-01
Si    2.82213e+00   2.82743e+00   1.45930e-02  3.82860e-02  -7.90113e-02  -5.74125e-02
Si    1.00994e-02   2.82723e+00   2.84651e+00 -2.11293e-01  -2.30095e-02  -1.68105e-01
Si    2.84721e+00   1.13132e+01   2.83506e+00 -2.17251e-01  -1.26215e-01  -7.38017e-02
Si    1.42063e+00   1.39956e+00   1.43263e+00  6.08026e-02   2.57336e-01   1.00465e-01
Si    4.23510e+00   4.23658e+00   1.43441e+00  1.58343e-01   9.84093e-02  -1.86271e-01
Si    1.43141e+00   4.23208e+00   4.24554e+00 -3.71285e-01   2.99171e-01   3.03625e-02
Si    4.23775e+00   1.39363e+00   4.23864e+00  3.76499e-03   6.61536e-01   1.08342e-01
Si    5.66795e+00   1.89035e-02   1.27427e-02 -1.75323e-01  -1.63066e-01  -1.77650e-01
Si    8.47041e+00   2.84786e+00   1.29502e-02  1.43834e-01  -4.29647e-01   3.07287e-02
Si    5.66543e+00   2.85973e+00   2.84994e+00 -3.45945e-01  -7.42971e-01  -3.12716e-01
Si    8.47422e+00   3.01682e-03   2.84126e+00  2.11963e-01  -1.23407e-01   8.00919e-02
Si    7.06634e+00   1.39773e+00   1.43614e+00  4.37776e-02   5.31877e-01  -1.57806e-02
Si    9.91298e+00   4.25554e+00   1.39586e+00  6.56567e-02  -3.09539e-01   2.60036e-01
Si    7.06007e+00   4.23348e+00   4.21423e+00  6.63052e-01   2.67401e-01   7.63737e-01
Si    9.88668e+00   1.42035e+00   4.27002e+00  3.80500e-01  -2.05310e-01  -2.90873e-01
Si    1.12937e+01   5.68566e+00   1.13538e-02  5.48557e-01  -2.61152e-01  -3.16717e-01
Si    2.83949e+00   8.46844e+00   1.13054e+01  7.49916e-02   3.87473e-01   1.29539e-01
Si    1.13176e+01   8.49374e+00   2.80830e+00  1.65321e-02  -5.34497e-02   3.48517e-01
Si    2.83024e+00   5.64584e+00   2.83623e+00 -3.14963e-01   1.29930e-01  -3.07010e-01
Si    1.42054e+00   7.09592e+00   1.39965e+00 -2.18457e-03  -3.81340e-01   2.31800e-01
Si    4.24956e+00   9.92084e+00   1.40378e+00  1.34615e-01  -4.34022e-01   9.16735e-02
Si    1.42530e+00   9.89897e+00   4.24675e+00 -2.95121e-02  -8.18226e-02  -1.43376e-01
Si    4.21003e+00   7.05987e+00   4.22270e+00  7.81215e-01   6.79254e-03   3.51844e-01
Si    5.67718e+00   5.64416e+00   1.58870e-02 -2.86170e-01   2.27140e-01   5.96975e-02
Si    8.51786e+00   8.50983e+00   1.13143e+01 -5.31432e-01  -2.96502e-01  -4.83919e-02
Si    5.68931e+00   8.46280e+00   2.81503e+00 -4.43444e-01   4.97875e-01   3.37580e-01
Si    8.51162e+00   5.64350e+00   2.80424e+00 -1.45996e-01   1.70906e-01   3.98541e-01
Si    7.09906e+00   7.07951e+00   1.42890e+00  1.57786e-01  -1.65683e-01  -4.58054e-01
Si    9.88460e+00   9.88711e+00   1.41436e+00  2.80125e-01   5.50597e-01   1.69387e-01
Si    7.07499e+00   9.92049e+00   4.27331e+00 -2.36442e-01  -2.63862e-01  -4.23455e-01
Si    9.90747e+00   7.07211e+00   4.25674e+00 -1.14581e-01   2.37786e-02  -5.11388e-01
Si    1.48916e-02   1.13122e+01   5.65539e+00 -5.19222e-02   1.69391e-01  -7.72168e-02
Si    2.81980e+00   2.85452e+00   5.66162e+00  1.73619e-01  -6.55437e-01   3.73644e-02
Si    1.13130e+01   2.81984e+00   8.46060e+00  1.90850e-01  -1.26874e-01   5.21623e-01
Si    2.84380e+00   1.13008e+01   8.46954e+00 -2.97675e-01   1.34017e-01   5.39648e-01
Si    1.42193e+00   1.39644e+00   7.08526e+00  3.33382e-02   1.88196e-01  -2.98240e-01
Si    4.22756e+00   4.23459e+00   7.08531e+00  2.15263e-01   2.32530e-01  -7.19357e-02
Si    1.42175e+00   4.23537e+00   9.89614e+00 -4.32400e-01   1.32553e-01   1.62024e-01
Si    4.23516e+00   1.41070e+00   9.90948e+00  1.24067e-01   8.65955e-02  -1.08041e-01
Si    5.63865e+00   1.36121e-02   5.65048e+00  2.84131e-01  -6.49058e-03   3.37333e-01
Si    8.51978e+00   2.81535e+00   5.68678e+00 -4.19975e-01   5.41588e-01  -4.68240e-01
Si    5.66377e+00   2.84004e+00   8.48902e+00 -1.43352e-01  -2.98783e-01  -4.77486e-03
Si    8.46841e+00   1.13125e+01   8.49583e+00  1.51854e-01   1.53805e-02  -2.38791e-01
Si    7.09873e+00   1.43869e+00   7.05735e+00 -4.76718e-01  -3.63846e-01   2.86087e-01
Si    9.92006e+00   4.22703e+00   7.08762e+00 -2.53071e-01   4.04708e-01  -7.25117e-02
Si    7.05591e+00   4.22052e+00   9.92467e+00  3.43307e-01   4.90254e-01  -3.05616e-01
Si    9.88127e+00   1.41742e+00   9.89651e+00  1.64215e-01   8.11073e-02   1.90596e-01
Si    1.12905e+01   5.65223e+00   5.64583e+00  5.41629e-01  -9.09270e-02   2.85025e-01
Si    2.83662e+00   8.47344e+00   5.65593e+00 -1.71630e-01   1.16522e-01   1.75362e-01
Si    2.96422e-03   8.46673e+00   8.47937e+00 -1.67885e-01   3.88895e-01   2.92487e-02
Si    2.80154e+00   5.65506e+00   8.47014e+00  4.59939e-01  -1.16875e-02   4.24298e-01
Si    1.41394e+00   7.06205e+00   7.09300e+00 -1.99736e-01   1.20252e-02  -6.11490e-01
Si    4.23303e+00   9.91841e+00   7.08013e+00  3.85098e-01  -4.83562e-01  -2.53585e-01
Si    1.41603e+00   9.88135e+00   9.90899e+00 -6.10507e-02   2.93847e-01  -6.31833e-02
Si    4.24883e+00   7.07548e+00   9.90285e+00  6.61613e-02  -4.15681e-01  -1.38362e-01
Si    5.67893e+00   5.65847e+00   5.69214e+00 -4.18695e-01  -8.12936e-02  -4.91051e-01
Si    8.47402e+00   8.47634e+00   5.63926e+00  1.73017e-01   1.29637e-01   4.04993e-01
Si    5.67600e+00   8.46844e+00   8.48094e+00 -3.20698e-01   3.55364e-01   1.08765e-01
Si    8.51381e+00   5.68047e+00   8.51368e+00 -3.01899e-01  -6.10464e-01  -3.52975e-02
Si    7.08519e+00   7.06379e+00   7.09748e+00  1.86153e-01   7.49475e-02  -2.08722e-01
Si    9.90733e+00   9.92026e+00   7.04267e+00 -1.62087e-01  -3.84257e-01   3.67424e-01
Si    7.05647e+00   9.90257e+00   9.91196e+00  1.59313e-01  -2.76749e-02  -4.74487e-03
Si    9.90602e+00   7.08189e+00   9.91024e+00  8.09326e-02   1.63495e-01  -4.35790e-03
