8
Lattice="5.387552 0 0 0 5.387552 0 0 0 5.387552 " PBC="1 1 1" Properties=species:S:1:pos:R:3:force:R:3 Energy="-34.6632085017"
Si    0.00000e+00   0.00000e+00   0.00000e+00 -7.21645e-15  -7.21493e-15  -7.21493e-15
Si    2.69378e+00   2.69378e+00   0.00000e+00 -6.57807e-15  -6.59195e-15  -6.38378e-15
Si    0.00000e+00   2.69378e+00   2.69378e+00 -6.46705e-15  -6.60338e-15  -6.61111e-15
Si    2.69378e+00   0.00000e+00   2.69378e+00 -6.59195e-15  -6.39766e-15  -6.60583e-15
Si    1.34689e+00   1.34689e+00   1.34689e+00 -3.05311e-16  -3.10867e-16  -3.04389e-16
Si    4.04066e+00   4.04066e+00   1.34689e+00  1.40869e-14   1.41196e-14  -1.10312e-15
Si    1.34689e+00   4.04066e+00   4.04066e+00 -1.11022e-15   1.41276e-14   1.41276e-14
Si    4.04066e+00   1.34689e+00   4.04066e+00  1.40869e-14  -1.08925e-15   1.41196e-14
