64
Lattice="9.88442 0 0 0 9.88442 0 0 0 9.88442 " PBC="1 1 1" Properties=species:S:1:pos:R:3:force:R:3 Energy="-243.194872881"
Si    9.88436e+00   3.38910e-03   9.88082e+00 -3.55402e-02  -3.96416e-02   9.76711e-02
Si    2.47729e+00   2.47260e+00   9.88214e+00 -3.42632e-01   8.94285e-03   2.06604e-01
Si    9.88196e+00   2.46484e+00   2.46784e+00  2.78144e-01   1.68768e-01   2.36564e-01
Si    2.46234e+00   9.87739e+00   2.46577e+00  1.71540e-01   2.02482e-03   1.30459e-01
Si    1.23197e+00   1.23162e+00   1.23878e+00  1.32457e-01   1.35101e-01  -2.35279e-01
Si    3.70962e+00   3.70808e+00   1.22950e+00  8.48117e-02  -8.15169e-02   1.46795e-01
Si    1.24203e+00   3.71047e+00   3.70712e+00 -1.53848e-01  -1.86410e-01  -1.18424e-01
Si    3.70763e+00   1.23463e+00   3.70052e+00 -2.86169e-01   2.20863e-02   5.23285e-02
Si    4.94346e+00   5.47927e-03   2.35546e-03 -2.12940e-02  -8.72000e-02  -2.73681e-01
Si    7.41089e+00   2.46774e+00   4.84060e-03  1.16308e-01   8.67105e-02  -3.38660e-02
Si    4.94594e+00   2.47334e+00   2.47596e+00 -3.56281e-02   6.24706e-02  -1.73236e-01
Si    7.40940e+00   2.26732e-03   2.46693e+00  5.57966e-02   3.55472e-02   3.79483e-02
Si    6.17018e+00   1.23425e+00   1.22884e+00  1.01982e-01   1.04999e-01   2.56078e-01
Si    8.65639e+00   3.70044e+00   1.24059e+00 -1.90086e-01   1.45328e-01  -1.63712e-01
Si    6.18082e+00   3.71275e+00   3.70568e+00 -6.20775e-03  -1.21229e-01   9.80200e-02
Si    8.65556e+00   1.23615e+00   3.70611e+00 -1.87503e-01  -1.69251e-01   1.85862e-02
Si    9.88357e+00   4.94604e+00   9.88280e+00  1.21085e-01  -8.33148e-02   1.54409e-01
Si    2.47546e+00   7.40485e+00   9.87846e+00 -1.93199e-02   2.94961e-01   6.56335e-02
Si    9.88158e+00   7.40654e+00   2.46900e+00  2.32296e-02   2.44387e-01  -3.68365e-02
Si    2.47682e+00   4.94188e+00   2.46726e+00  1.77961e-02  -1.30913e-02   2.81261e-02
Si    1.24135e+00   6.18042e+00   1.23964e+00 -7.00842e-02  -1.16011e-01  -1.32122e-01
Si    3.71446e+00   8.65365e+00   1.23006e+00 -2.19052e-01  -1.67126e-01   2.79485e-02
Si    1.22760e+00   8.64731e+00   3.70996e+00  1.98908e-01  -2.64266e-01  -1.07240e-01
Si    3.71265e+00   6.17096e+00   3.70711e+00 -3.39189e-02   1.52064e-01   1.40839e-02
Si    4.94805e+00   4.93736e+00   9.88280e+00 -1.05319e-01   1.09875e-01  -2.79741e-02
Si    7.41148e+00   7.41506e+00   7.23333e-03  1.10643e-02  -1.13854e-03  -2.94206e-01
Si    4.94393e+00   7.42124e+00   2.47561e+00 -5.44380e-02  -3.52733e-01  -2.82359e-01
Si    7.41099e+00   4.94102e+00   2.46812e+00  2.27712e-01   5.13095e-02   1.03204e-02
Si    6.17990e+00   6.17240e+00   1.23024e+00 -1.80253e-01   1.75353e-01   2.21538e-01
Si    8.64689e+00   8.65074e+00   1.23124e+00  1.09338e-01   2.36301e-02   1.25773e-01
Si    6.17519e+00   8.64444e+00   3.70035e+00  4.84073e-02   3.23593e-01   2.68971e-01
Si    8.64966e+00   6.18245e+00   3.70559e+00 -6.33348e-02  -2.72514e-01  -4.37454e-02
Si    7.03805e-04   9.87504e+00   4.93929e+00  2.49479e-02   3.30993e-01   2.20568e-01
Si    2.46437e+00   2.46680e+00   4.94909e+00  3.91473e-01   2.05883e-01  -3.88297e-01
Si    9.73195e-04   2.47447e+00   7.40764e+00 -7.69511e-03  -1.93335e-02  -3.26114e-02
Si    2.47011e+00   5.29657e-03   7.41164e+00  2.90037e-02   1.46962e-02   4.55067e-02
Si    1.24395e+00   1.24463e+00   6.16999e+00 -4.16286e-01  -3.89772e-01   1.69417e-01
Si    3.70763e+00   3.70705e+00   6.17346e+00 -9.39093e-02   3.34054e-02   3.78814e-02
Si    1.23385e+00   3.70531e+00   8.64682e+00  1.10655e-01   1.23130e-01  -2.05123e-02
Si    3.70193e+00   1.24031e+00   8.65754e+00  1.21642e-01  -1.83330e-01  -2.13950e-01
Si    4.93640e+00   6.32033e-03   4.94419e+00  2.29941e-01  -1.44432e-01  -1.47754e-02
Si    7.40854e+00   2.46409e+00   4.94053e+00  2.13380e-01   2.60289e-01  -1.00642e-01
Si    4.93506e+00   2.46670e+00   7.40930e+00  1.70515e-01   1.47735e-01   1.92236e-01
Si    7.42183e+00   9.88180e+00   7.40988e+00 -6.27988e-03   2.45508e-01   9.30592e-02
Si    6.18581e+00   1.24131e+00   6.17886e+00 -2.06931e-01  -2.59020e-01   6.72578e-02
Si    8.64221e+00   3.71039e+00   6.17841e+00  5.47782e-03  -1.84798e-01  -1.33936e-01
Si    6.18038e+00   3.70844e+00   8.65269e+00 -8.01984e-02  -2.55414e-01  -2.08025e-01
Si    8.65436e+00   1.24062e+00   8.65035e+00 -1.23716e-01  -1.69453e-02  -1.05492e-01
Si    9.88202e+00   4.93854e+00   4.94065e+00  4.73858e-02   1.51337e-01   4.18888e-02
Si    2.47585e+00   7.41078e+00   4.94669e+00 -4.16318e-02   5.03349e-02  -2.53182e-01
Si    6.95068e-03   7.40688e+00   7.41764e+00 -5.86729e-02   1.82241e-01  -5.35554e-02
Si    2.47330e+00   4.95001e+00   7.41038e+00 -5.33124e-02  -1.79256e-01   1.37680e-02
Si    1.23704e+00   6.18308e+00   6.17530e+00 -6.99632e-02  -1.92980e-01  -5.09860e-02
Si    3.70450e+00   8.64671e+00   6.17963e+00  3.75868e-02   1.17110e-01   2.35903e-02
Si    1.23261e+00   8.65432e+00   8.64811e+00  1.66207e-01  -1.31210e-01   2.64328e-02
Si    3.71200e+00   6.17509e+00   8.64750e+00  9.26355e-02  -5.49780e-02  -8.06354e-03
Si    4.94827e+00   4.94322e+00   4.94532e+00 -2.45080e-02  -3.41476e-02  -1.11962e-02
Si    7.41342e+00   7.41146e+00   4.93534e+00 -8.69167e-03   1.29576e-01   2.58351e-01
Si    4.94213e+00   7.41166e+00   7.40967e+00 -1.93684e-03   1.60750e-01   1.79755e-01
Si    7.40836e+00   4.94006e+00   7.40911e+00  9.10671e-02   2.01752e-01   2.03275e-01
Si    6.17392e+00   6.18136e+00   6.18183e+00  1.63618e-01  -1.38971e-02  -1.66790e-01
Si    8.65412e+00   8.64859e+00   6.18417e+00 -1.54006e-02  -2.80017e-01  -1.66985e-01
Si    6.18151e+00   8.65653e+00   8.64354e+00 -8.68249e-02  -1.51832e-01   1.12145e-01
Si    8.65338e+00   6.18019e+00   8.64966e+00 -2.93530e-01  -5.50836e-02  -3.13099e-02
