64
Lattice="10.470968 0 0 0 10.470968 0 0 0 10.470968 " PBC="1 1 1" Properties=species:S:1:pos:R:3:force:R:3 Energy="-272.461852049"
Si    1.87896e-03   1.04703e+01   2.88626e-04 -4.18733e-02  -3.64393e-03  -5.75736e-03
Si    2.62013e+00   2.61898e+00   1.65549e-03 -4.64090e-02  -3.07306e-02  -3.70962e-02
Si    1.04689e+01   2.61999e+00   2.61831e+00  5.14776e-02  -3.87785e-02   9.46040e-03
Si    2.61825e+00   1.04688e+01   2.61693e+00 -3.37843e-02   3.16212e-02   4.22548e-02
Si    1.30972e+00   1.30857e+00   1.30914e+00 -1.24141e-02   3.11531e-02   2.08035e-02
Si    3.92768e+00   3.92708e+00   1.30651e+00 -3.43302e-02   4.44567e-02   6.68865e-02
Si    1.30919e+00   3.92801e+00   3.92876e+00  4.58634e-03  -2.24293e-02  -4.60677e-02
Si    3.92448e+00   1.31098e+00   3.92641e+00  4.52289e-02  -7.12979e-02  -2.39018e-02
Si    5.23523e+00   2.61473e-03   1.04692e+01 -3.59243e-02  -3.06053e-02   7.72985e-02
Si    7.85432e+00   2.61597e+00   1.62707e-03 -1.95895e-02   3.19460e-02  -3.62557e-02
Si    5.23305e+00   2.61792e+00   2.61600e+00  4.19577e-02   2.11086e-02   4.37462e-02
Si    7.85222e+00   1.04686e+01   2.61637e+00  3.58176e-02   4.35944e-02   2.18191e-02
Si    6.54527e+00   1.31035e+00   1.30989e+00 -3.39990e-02  -3.59273e-02  -1.00915e-02
Si    9.16120e+00   3.92658e+00   1.30900e+00  3.15440e-02  -2.59447e-03  -3.06518e-02
Si    6.54330e+00   3.92642e+00   3.92915e+00  4.05514e-02  -2.82713e-02  -7.49558e-02
Si    9.16210e+00   1.30834e+00   3.92781e+00 -1.31481e-02  -8.85792e-03  -4.51192e-02
Si    1.90221e-03   5.23300e+00   1.04699e+01 -4.35253e-02   1.81360e-02   1.33802e-02
Si    2.61926e+00   7.85300e+00   1.04684e+01 -7.44423e-02   4.55110e-03   4.00436e-02
Si    1.04705e+01   7.85234e+00   2.61829e+00  3.10170e-03   3.04065e-02  -2.93666e-02
Si    2.61682e+00   5.23800e+00   2.61820e+00  9.82243e-03  -6.14697e-02  -4.35053e-02
Si    1.30694e+00   6.54446e+00   1.30813e+00  3.90587e-02   1.47981e-02  -1.95911e-02
Si    3.92407e+00   9.15998e+00   1.31036e+00  7.77573e-02   4.73056e-02  -7.26810e-02
Si    1.30849e+00   9.16052e+00   3.92726e+00  2.82295e-02   7.53507e-03   1.30935e-02
Si    3.92735e+00   6.54315e+00   3.92467e+00  8.51171e-03   2.52752e-02   3.61934e-02
Si    5.23534e+00   5.23491e+00   1.04705e+01  5.03008e-04   1.09002e-02  -3.58791e-02
Si    7.85258e+00   7.85214e+00   2.76866e-04 -2.50320e-02   1.22894e-02  -2.15186e-02
Si    5.23512e+00   7.85471e+00   2.61879e+00  3.31481e-02  -4.45113e-02  -3.37632e-02
Si    7.85467e+00   5.23437e+00   2.61623e+00 -4.09784e-02   2.17826e-02   5.63488e-02
Si    6.54438e+00   6.54243e+00   1.30715e+00 -1.94789e-02   3.45050e-02   5.14942e-02
Si    9.16076e+00   9.15970e+00   1.30744e+00  4.10025e-02   2.37959e-02   1.68714e-02
Si    6.54501e+00   9.16280e+00   3.92679e+00  1.57069e-02  -4.54166e-02  -5.55700e-03
Si    9.16333e+00   6.54601e+00   3.92596e+00 -2.50075e-02  -6.20176e-02  -2.29944e-02
Si    1.59642e-03   1.98765e-03   5.23594e+00 -3.69695e-02  -7.52345e-02  -2.46687e-02
Si    2.61856e+00   2.61664e+00   5.23490e+00 -4.79323e-02   2.37972e-02   5.34757e-02
Si    1.04690e+01   2.61624e+00   7.85456e+00  9.79479e-03   3.64246e-03  -2.47715e-02
Si    2.61815e+00   6.90203e-04   7.85562e+00 -1.20238e-02   1.61871e-03  -7.81445e-02
Si    1.30675e+00   1.30692e+00   6.54387e+00  6.35634e-02   5.36987e-02   4.31936e-02
Si    3.92516e+00   3.92678e+00   6.54609e+00  3.02465e-02   1.70742e-02  -7.81072e-02
Si    1.30942e+00   3.92497e+00   9.16148e+00 -5.19596e-04  -2.37127e-02   8.03801e-03
Si    3.92548e+00   1.30994e+00   9.16081e+00  4.08557e-02   4.06539e-02   8.69288e-03
Si    5.23685e+00   1.04698e+01   5.23310e+00 -5.30653e-02   3.24007e-02   4.21236e-02
Si    7.85554e+00   2.61783e+00   5.23675e+00 -3.69392e-02  -5.87971e-03   3.00093e-03
Si    5.23600e+00   2.62033e+00   7.85144e+00  2.21774e-03  -6.58200e-02   2.07643e-02
Si    7.85279e+00   1.04710e+01   7.85418e+00  2.06337e-02  -6.61081e-02  -4.17124e-02
Si    6.54563e+00   1.30649e+00   6.54470e+00 -2.18501e-02   4.91587e-02  -1.89936e-02
Si    9.16446e+00   3.92853e+00   6.54282e+00 -2.33657e-02  -2.58536e-02   3.77147e-02
Si    6.54494e+00   3.92620e+00   9.16184e+00  2.61934e-02   5.83431e-03   5.29763e-03
Si    9.15971e+00   1.30629e+00   9.16214e+00  4.87887e-02   2.00354e-02   3.25458e-02
Si    1.04704e+01   5.23589e+00   5.23369e+00  3.29257e-02   4.74728e-02   3.38589e-02
Si    2.61980e+00   7.85067e+00   5.23686e+00 -1.96242e-02   3.22400e-02  -3.58724e-02
Si    1.42959e-03   7.85361e+00   7.85575e+00 -3.40177e-02  -1.76565e-02  -2.40141e-02
Si    2.61517e+00   5.23360e+00   7.85173e+00  1.47532e-02   4.11831e-02   3.03189e-02
Si    1.30870e+00   6.54597e+00   6.54488e+00 -2.34052e-02  -4.36833e-02  -1.18198e-02
Si    3.92616e+00   9.16141e+00   6.54534e+00  2.01777e-02   2.53024e-02  -1.12363e-02
Si    1.30951e+00   9.16361e+00   9.15993e+00  1.38288e-02  -2.23089e-02   5.99327e-02
Si    3.92427e+00   6.54377e+00   9.16197e+00  2.34585e-02  -5.11163e-02  -2.33091e-02
Si    5.23688e+00   5.23581e+00   5.23397e+00 -4.81189e-02   3.41341e-03   6.49230e-02
Si    7.85542e+00   7.85160e+00   5.23411e+00 -3.94674e-02   3.64166e-02   1.62395e-02
Si    5.23360e+00   7.85160e+00   7.85428e+00  2.72851e-02   4.06295e-02   1.06597e-02
Si    7.85358e+00   5.23662e+00   7.85148e+00  1.15964e-03  -1.49002e-02   2.30356e-02
Si    6.54425e+00   6.54616e+00   6.54463e+00  4.09538e-04  -1.82063e-02  -2.29743e-02
Si    9.16406e+00   9.15971e+00   6.54324e+00 -1.70976e-02   5.02850e-02   3.28325e-02
Si    6.54334e+00   9.16397e+00   9.16328e+00 -3.88469e-04  -5.21370e-02  -2.15998e-02
Si    9.16132e+00   6.54398e+00   9.16384e+00  3.04239e-02  -1.08496e-02  -2.43650e-02
