64
Lattice="9.949592 0 0 0 9.949592 0 0 0 9.949592 " PBC="1 1 1" Properties=species:S:1:pos:R:3:force:R:3 Energy="-247.173251499"
Si    6.97112e-03   9.93699e+00   9.94795e+00 -2.42306e-01  -6.60290e-04  -1.09037e-01
Si    2.50501e+00   2.48277e+00   9.93869e+00 -7.67071e-01   4.61316e-03   3.30950e-01
Si    9.92164e+00   2.49073e+00   2.49498e+00  8.53549e-01  -6.22762e-02  -5.91085e-01
Si    2.49712e+00   9.93433e+00   2.47576e+00 -1.39825e-03   8.59319e-01   6.72635e-01
Si    1.24949e+00   1.22999e+00   1.23472e+00 -1.62482e-01   4.80292e-01   2.48007e-01
Si    3.70131e+00   3.72644e+00   1.23860e+00  1.54413e+00  -2.60926e-01  -3.44934e-01
Si    1.23912e+00   3.71473e+00   3.73329e+00  4.79301e-02   4.97801e-01  -6.68033e-02
Si    3.74502e+00   1.25489e+00   3.74823e+00 -2.77308e-01  -3.74673e-01  -6.77887e-01
Si    4.95522e+00   9.93808e+00   9.94867e+00  2.37294e-01   3.52826e-01   5.78525e-01
Si    7.48846e+00   2.51108e+00   5.97026e-03 -4.24624e-01  -4.04412e-01  -3.04306e-01
Si    5.00223e+00   2.47110e+00   2.48436e+00 -8.81717e-01   9.48780e-01   3.20782e-01
Si    7.43495e+00   9.94822e+00   2.46759e+00  4.21354e-01   3.67081e-01   1.88442e-01
Si    6.20864e+00   1.26877e+00   1.24012e+00  3.72252e-01  -6.32115e-01  -8.76923e-01
Si    8.68192e+00   3.73508e+00   1.27164e+00  8.27167e-01   6.62248e-02  -5.65371e-01
Si    6.21981e+00   3.73476e+00   3.74794e+00  1.37500e-01   2.93650e-02  -5.58565e-01
Si    8.70614e+00   1.26322e+00   3.71020e+00 -4.71178e-01  -9.67637e-01  -5.28470e-02
Si    6.87203e-03   4.97091e+00   1.81806e-02 -3.20632e-01  -1.91852e-01  -3.30425e-01
Si    2.47391e+00   7.44725e+00   9.94447e+00  3.64682e-01   3.59567e-01  -1.56350e-01
Si    9.93018e+00   7.44597e+00   2.47257e+00  7.72553e-01   2.32260e-01   9.05693e-01
Si    2.50692e+00   4.96062e+00   2.46196e+00 -7.61712e-01   3.82870e-01   7.81823e-01
Si    1.24515e+00   6.22276e+00   1.24045e+00  3.75848e-02  -2.61450e-01   2.31524e-01
Si    3.71046e+00   8.70989e+00   1.25043e+00  3.52621e-01  -7.63402e-01  -4.33381e-01
Si    1.25392e+00   8.72775e+00   3.74180e+00 -9.27070e-01  -2.73002e-01  -5.64699e-01
Si    3.75991e+00   6.20542e+00   3.71474e+00 -5.46436e-01   3.64422e-01  -1.78346e-01
Si    4.98339e+00   4.98020e+00   9.92212e+00 -4.01667e-01  -2.08866e-01   1.25317e+00
Si    7.48878e+00   7.47661e+00   3.78068e-04 -7.20379e-01  -3.07919e-01   3.11037e-01
Si    4.98571e+00   7.46266e+00   2.47454e+00 -7.19622e-01   4.40507e-01   2.30139e-01
Si    7.45373e+00   4.96626e+00   2.45834e+00 -5.66173e-01   4.68437e-01   9.11164e-01
Si    6.19674e+00   6.23684e+00   1.25453e+00  7.62245e-01  -2.71027e-01  -9.80635e-01
Si    8.70894e+00   8.69104e+00   1.26067e+00 -7.10974e-02   6.14234e-01  -3.14461e-01
Si    6.18830e+00   8.72631e+00   3.71198e+00  9.80965e-01  -8.64665e-01   4.22866e-01
Si    8.70723e+00   6.19468e+00   3.73183e+00 -3.31099e-01   1.38386e-01   2.95276e-02
Si    9.92356e+00   1.55603e-02   4.97818e+00  3.63992e-01   9.92634e-02  -3.39722e-01
Si    2.48185e+00   2.47492e+00   4.97829e+00  6.06652e-02   1.95118e-01   3.01452e-01
Si    2.57973e-02   2.47760e+00   7.44701e+00  7.26097e-02   3.24126e-01   1.77300e-01
Si    2.49394e+00   1.50035e-03   7.45982e+00  4.29432e-01   2.76247e-01  -6.03387e-04
Si    1.24128e+00   1.22704e+00   6.22272e+00  1.41479e-01  -6.23667e-02  -2.91809e-01
Si    3.73545e+00   3.74322e+00   6.21486e+00  8.80318e-02  -2.89775e-01   3.94667e-02
Si    1.26144e+00   3.72414e+00   8.70024e+00 -6.08618e-01  -3.01556e-01   5.18456e-01
Si    3.72526e+00   1.24437e+00   8.73469e+00  4.34883e-01  -6.31909e-02  -9.72282e-01
Si    4.97057e+00   9.93440e+00   4.95618e+00 -1.69662e-01   4.25396e-01   7.72138e-01
Si    7.47122e+00   2.47454e+00   4.94877e+00 -2.67583e-01   1.31529e-01   9.23885e-01
Si    4.99606e+00   2.49869e+00   7.47935e+00 -9.71930e-01  -1.10451e-01   5.94548e-02
Si    7.45812e+00   9.93267e+00   7.46865e+00  6.28870e-02   5.09557e-01  -1.03120e-02
Si    6.19558e+00   1.24519e+00   6.23336e+00  5.84716e-01  -3.07992e-01  -5.98964e-01
Si    8.71409e+00   3.71642e+00   6.23092e+00 -4.16566e-01  -7.65640e-02  -1.26275e-01
Si    6.20609e+00   3.73562e+00   8.71979e+00  7.32563e-01  -1.69847e-01  -3.72109e-02
Si    8.73016e+00   1.26015e+00   8.68721e+00 -3.10651e-01  -3.92957e-01   3.09040e-01
Si    9.94332e+00   4.97138e+00   4.99957e+00  5.72169e-03  -4.68250e-01  -5.73274e-01
Si    2.48459e+00   7.46932e+00   4.94874e+00  3.51342e-01  -5.66539e-01   5.66310e-01
Si    9.94408e+00   7.47465e+00   7.43481e+00  8.11365e-02  -6.64633e-03   5.66593e-01
Si    2.47217e+00   4.95015e+00   7.47705e+00  4.28116e-01   7.86979e-01  -4.67380e-01
Si    1.22167e+00   6.20672e+00   6.21416e+00  8.25193e-01   3.29245e-01   1.05109e-01
Si    3.74344e+00   8.69792e+00   6.22945e+00 -2.36509e-01  -8.56578e-02  -3.51309e-01
Si    1.26346e+00   8.72251e+00   8.68677e+00 -4.31943e-01  -5.63921e-01   1.19462e-01
Si    3.74461e+00   6.20311e+00   8.71296e+00 -4.84020e-01   3.42613e-01  -5.59329e-01
Si    4.98160e+00   4.99076e+00   4.96533e+00 -1.60930e-01  -4.76076e-01   1.65182e-01
Si    7.48235e+00   7.47102e+00   5.00088e+00 -6.95864e-01  -3.20417e-02  -1.10455e+00
Si    4.99447e+00   7.45771e+00   7.46397e+00  1.34121e-01  -2.94013e-01   7.67183e-02
Si    7.45179e+00   4.96406e+00   7.47240e+00  1.61330e-01  -9.75743e-02  -6.75813e-02
Si    6.22777e+00   6.19244e+00   6.20230e+00  1.10322e-01   5.56012e-01   4.30327e-01
Si    8.70746e+00   8.71768e+00   6.20857e+00 -2.86594e-02   1.41673e-01   3.68524e-01
Si    6.21732e+00   8.71434e+00   8.72785e+00  7.96658e-02  -3.20138e-01  -1.82145e-01
Si    8.69812e+00   6.22496e+00   8.70409e+00  5.16880e-01  -1.94301e-01  -1.26892e-01
