64
Lattice="11.709236 0 0 0 11.709236 0 0 0 11.709236 " PBC="1 1 1" Properties=species:S:1:pos:R:3:force:R:3 Energy="-258.30896378"
Si    1.17092e+01   1.17078e+01   1.17078e+01 -1.14083e-02  -1.83134e-02   3.34805e-02
Si    2.92495e+00   2.92768e+00   1.17064e+01  3.22785e-02  -1.11649e-02   2.82141e-02
Si    1.17072e+01   2.92719e+00   2.92497e+00  2.74767e-02  -1.05602e-02   3.88726e-02
Si    2.92682e+00   2.42177e-03   2.92644e+00 -2.94289e-03  -4.28844e-03  -1.34374e-03
Si    1.46140e+00   1.46490e+00   1.46132e+00  1.29752e-02  -1.16352e-02   4.05079e-03
Si    4.39041e+00   4.39193e+00   1.46154e+00 -8.35940e-03  -6.80238e-03   4.56212e-03
Si    1.46559e+00   4.38876e+00   4.39148e+00 -3.18925e-02   2.92692e-02  -1.11921e-02
Si    4.38841e+00   1.46364e+00   4.39347e+00  2.91800e-02  -8.63624e-04  -2.24931e-02
Si    5.85641e+00   1.17075e+01   1.17083e+01 -9.20612e-03  -1.80627e-03  -2.43350e-03
Si    8.78213e+00   2.93011e+00   1.78244e-05  1.96236e-02  -4.59186e-02   9.36112e-03
Si    5.85372e+00   2.92563e+00   2.92542e+00 -5.89035e-03   1.92960e-02   2.70718e-02
Si    8.77961e+00   1.17074e+01   2.92462e+00  1.75288e-03   3.16796e-02   4.25573e-02
Si    7.31675e+00   1.46393e+00   1.46194e+00  1.93177e-02  -2.18796e-03  -4.17835e-03
Si    1.02485e+01   4.38990e+00   1.46316e+00 -3.17231e-02   3.66536e-02  -1.26083e-03
Si    7.32085e+00   4.38905e+00   4.39141e+00 -2.60873e-02  -8.12484e-03  -2.77171e-03
Si    1.02445e+01   1.46312e+00   4.39167e+00 -3.67912e-03  -1.36925e-02  -2.16170e-02
Si    1.69848e-03   5.85507e+00   1.17080e+01 -1.10202e-02  -1.17140e-02   2.38393e-02
Si    2.92477e+00   8.78051e+00   1.36589e-04  3.46621e-02   1.17447e-02   1.04466e-02
Si    1.96204e-04   8.78260e+00   2.92471e+00  9.55624e-03  -7.49573e-03   3.08065e-02
Si    2.92590e+00   5.85729e+00   2.92494e+00  2.82881e-02  -4.48361e-02   3.98983e-02
Si    1.46451e+00   7.31569e+00   1.46452e+00 -2.78468e-02   3.78662e-02  -2.51378e-02
Si    4.39307e+00   1.02460e+01   1.46613e+00 -2.69330e-02  -1.51034e-02  -2.91251e-02
Si    1.46282e+00   1.02484e+01   4.38921e+00  6.74924e-03  -3.68083e-02   1.61112e-02
Si    4.38939e+00   7.31957e+00   4.39217e+00  1.99266e-02  -2.80884e-02  -1.52139e-02
Si    5.85416e+00   5.85596e+00   1.17079e+01  3.17425e-02  -3.21474e-02   1.19255e-02
Si    8.78147e+00   8.77905e+00   1.17081e+01  1.36398e-02   2.59512e-02   1.29933e-02
Si    5.85632e+00   8.78079e+00   2.92822e+00 -1.22611e-02   1.84880e-02   1.08887e-02
Si    8.78294e+00   5.85376e+00   2.92975e+00  1.01493e-02   1.87458e-02  -3.47713e-02
Si    7.31841e+00   7.31966e+00   1.46184e+00  5.11195e-03  -3.74989e-02   3.05958e-02
Si    1.02432e+01   1.02440e+01   1.46658e+00  1.64331e-02   4.23952e-03  -6.37665e-02
Si    7.31673e+00   1.02479e+01   4.39352e+00  3.37679e-02  -4.79426e-02  -3.02121e-02
Si    1.02471e+01   7.32104e+00   4.39208e+00  1.15060e-03  -3.12645e-02  -8.34326e-03
Si    1.17066e+01   1.17068e+01   5.85567e+00  1.29790e-02   2.54491e-02  -8.07250e-03
Si    2.92606e+00   2.92602e+00   5.85699e+00  7.77975e-03   5.11487e-04   1.07826e-03
Si    2.37511e-03   2.92684e+00   8.78115e+00 -3.86054e-02   2.13132e-02   2.68913e-02
Si    2.92569e+00   1.17089e+01   8.78153e+00  1.65219e-02  -2.92283e-02  -4.60385e-03
Si    1.46145e+00   1.46246e+00   7.32006e+00  1.08645e-02  -9.03607e-03  -2.64001e-02
Si    4.39384e+00   4.38944e+00   7.31722e+00 -2.98598e-02   2.07251e-03   2.10523e-02
Si    1.46442e+00   4.39151e+00   1.02477e+01 -7.72954e-03   2.37744e-03  -5.17339e-02
Si    4.39052e+00   1.46135e+00   1.02457e+01 -3.92900e-03   1.02898e-02   1.70530e-03
Si    5.85675e+00   1.17085e+01   5.85371e+00 -4.14369e-02   2.36511e-02   2.89568e-02
Si    8.78354e+00   2.92638e+00   5.85699e+00 -2.75869e-02  -1.88580e-03  -3.45759e-03
Si    5.85464e+00   2.92619e+00   8.78394e+00 -4.50404e-03   8.84236e-03   2.24950e-03
Si    8.78470e+00   1.17080e+01   8.78376e+00 -2.59736e-02   2.31656e-02  -1.55628e-02
Si    7.31553e+00   1.46434e+00   7.32107e+00  4.89157e-02  -2.45008e-02  -1.09120e-02
Si    1.02429e+01   4.39287e+00   7.31918e+00  6.18465e-02  -3.97054e-02  -1.14459e-02
Si    7.32113e+00   4.38930e+00   1.02458e+01 -3.26826e-02   3.05595e-02  -1.12302e-02
Si    1.02481e+01   1.46258e+00   1.02481e+01 -1.73776e-02   2.63807e-02  -2.52384e-02
Si    6.17000e-04   5.85564e+00   5.85721e+00 -8.18858e-03  -2.46144e-02  -3.77871e-02
Si    2.92567e+00   8.77920e+00   5.85544e+00 -2.03276e-03   4.32096e-02  -1.82393e-02
Si    1.17072e+01   8.78476e+00   8.78104e+00 -7.32136e-04  -6.65412e-02  -3.92139e-03
Si    2.92716e+00   5.85437e+00   8.78038e+00  1.96636e-02  -1.73637e-02   1.87853e-02
Si    1.46359e+00   7.31630e+00   7.31774e+00 -1.43922e-02   3.36606e-02   2.89692e-02
Si    4.39277e+00   1.02433e+01   7.31663e+00 -3.45210e-02   2.64284e-02   3.87321e-03
Si    1.46080e+00   1.02430e+01   1.02436e+01  2.71042e-02   2.52976e-02   1.63291e-02
Si    4.39172e+00   7.31562e+00   1.02478e+01 -2.66665e-02   3.71205e-02  -4.08023e-02
Si    5.85535e+00   5.85276e+00   5.85444e+00  1.82154e-02   3.42609e-02   3.58128e-03
Si    8.78189e+00   8.77961e+00   5.85566e+00 -1.07251e-02   4.13629e-02  -1.20491e-02
Si    5.85313e+00   8.78209e+00   8.78068e+00  1.78079e-02  -1.33470e-02   3.42423e-02
Si    8.78431e+00   5.85184e+00   8.77983e+00 -3.57121e-02   3.97666e-02   4.16742e-02
Si    7.31998e+00   7.32088e+00   7.32094e+00 -2.25930e-02  -5.53758e-02  -2.62447e-02
Si    1.02434e+01   1.02444e+01   7.31777e+00  5.54857e-03   3.28029e-03   3.44982e-03
Si    7.32094e+00   1.02436e+01   1.02440e+01 -2.40017e-02   1.62065e-03   8.15735e-03
Si    1.02448e+01   7.31608e+00   1.02468e+01  1.74715e-02   1.53015e-02  -3.51093e-02
