64
Lattice="10.883724 0 0 0 10.883724 0 0 0 10.883724 " PBC="1 1 1" Properties=species:S:1:pos:R:3:force:R:3 Energy="-277.487237283"
Si    6.30210e-03   5.50060e-03   1.08765e+01 -2.02099e-01  -5.61973e-02   4.88866e-02
Si    2.72760e+00   2.71348e+00   4.65336e-03 -1.36242e-01   1.27735e-01  -1.34569e-01
Si    1.08816e+01   2.72525e+00   2.72311e+00  2.44395e-02   4.91688e-03  -5.76906e-02
Si    2.72653e+00   1.08801e+01   2.72637e+00 -1.14884e-01   2.63716e-02  -8.48522e-02
Si    1.35546e+00   1.36064e+00   1.36152e+00  1.29576e-01  -3.24492e-02   8.59500e-02
Si    4.08319e+00   4.07888e+00   1.35998e+00 -2.73517e-02   1.57628e-02   4.54632e-02
Si    1.35927e+00   4.07468e+00   4.09000e+00  4.57341e-02   1.20967e-01  -1.25963e-01
Si    4.07471e+00   1.36433e+00   4.09026e+00  1.69915e-01  -1.68234e-01  -7.91742e-02
Si    5.43994e+00   6.40145e-03   9.26851e-03 -2.09405e-02  -5.90765e-02  -1.94409e-01
Si    8.15954e+00   2.71630e+00   1.08796e+01  3.16306e-02   8.08311e-02   7.89487e-02
Si    5.43817e+00   2.71517e+00   2.72450e+00  1.94197e-02   9.29612e-02   4.17327e-02
Si    8.17059e+00   1.08836e+01   2.71821e+00 -1.11275e-01   3.44686e-02  -1.48241e-02
Si    6.79680e+00   1.36444e+00   1.35973e+00  1.30479e-01  -6.61937e-02   9.62488e-02
Si    9.52039e+00   4.08446e+00   1.35903e+00 -7.28166e-02  -6.74943e-03   3.81418e-02
Si    6.80815e+00   4.07351e+00   4.08611e+00 -6.75591e-02   4.59440e-02  -2.88300e-02
Si    9.52691e+00   1.36815e+00   4.08171e+00 -2.34764e-02  -1.39128e-01   1.27900e-03
Si    1.08812e+01   5.44133e+00   1.08808e+01  1.04589e-02  -6.22407e-03   2.37236e-02
Si    2.72436e+00   8.17131e+00   3.17109e-04 -5.86048e-02  -2.74281e-01  -4.71633e-02
Si    1.08755e+01   8.16676e+00   2.72013e+00  7.93907e-02  -5.76316e-02  -1.90299e-02
Si    2.71403e+00   5.44386e+00   2.71462e+00  5.02566e-02  -9.25326e-02   1.32271e-01
Si    1.35364e+00   6.80129e+00   1.36031e+00  4.03819e-02   1.25082e-01  -7.01381e-02
Si    4.08202e+00   9.51701e+00   1.35627e+00 -2.31699e-03   1.82248e-01   1.19732e-01
Si    1.35825e+00   9.52080e+00   4.08433e+00  1.11170e-01  -7.89831e-02  -2.86497e-02
Si    4.07913e+00   6.80490e+00   4.07972e+00  1.23669e-02  -7.23779e-02  -2.72854e-02
Si    5.44289e+00   5.43358e+00   1.08791e+01  3.46167e-02   7.08318e-02   4.52985e-02
Si    8.15757e+00   8.16563e+00   1.08786e+01  1.58651e-02  -1.36264e-01   2.59404e-02
Si    5.43453e+00   8.17068e+00   2.72732e+00  8.94619e-02  -1.89919e-01  -1.61946e-01
Si    8.15728e+00   5.44681e+00   2.72998e+00  7.06148e-02  -1.53974e-01  -1.21114e-01
Si    6.80193e+00   6.79770e+00   1.36496e+00 -1.14882e-01   1.27724e-01  -4.98254e-02
Si    9.52042e+00   9.51768e+00   1.35038e+00  7.62038e-02   1.62362e-01   8.18865e-03
Si    6.79989e+00   9.51976e+00   4.07587e+00  9.75732e-02   1.14784e-01   1.04821e-01
Si    9.52040e+00   6.80209e+00   4.07767e+00  8.06118e-03   5.50795e-02   8.57371e-02
Si    8.74718e-04   1.08788e+01   5.43651e+00 -7.78896e-02   8.94639e-02   5.00581e-02
Si    2.72483e+00   2.71598e+00   5.44170e+00 -1.38652e-01   8.21992e-02   8.07482e-02
Si    8.05563e-03   2.72410e+00   8.17069e+00 -1.61935e-01  -1.20015e-02  -1.95924e-01
Si    2.71304e+00   1.08804e+01   8.16428e+00  5.09987e-02   6.59738e-02  -9.98868e-02
Si    1.35188e+00   1.36530e+00   6.79564e+00  1.12943e-01  -1.20294e-01   1.04487e-01
Si    4.07633e+00   4.07595e+00   6.80309e+00  1.69054e-01   1.47426e-01  -1.07704e-01
Si    1.35658e+00   4.08255e+00   9.51941e+00  2.32396e-01   8.37891e-03   1.64717e-01
Si    4.08622e+00   1.36666e+00   9.51385e+00 -1.32480e-01  -2.29318e-01   1.68814e-01
Si    5.44435e+00   1.08810e+01   5.44627e+00 -5.04312e-02   2.59183e-02  -1.29964e-01
Si    8.17018e+00   2.71999e+00   5.44852e+00 -8.75849e-02  -3.66803e-02  -3.98276e-02
Si    5.43649e+00   2.71116e+00   8.15918e+00  1.10527e-01   2.01612e-01  -3.70009e-02
Si    8.16922e+00   1.02704e-02   8.15881e+00 -1.32295e-01  -1.48401e-01   2.80861e-03
Si    6.79804e+00   1.36069e+00   6.80127e+00  1.06408e-01  -7.38472e-03  -7.57218e-03
Si    9.52899e+00   4.07977e+00   6.79798e+00 -6.46110e-02   6.59011e-02   2.22547e-01
Si    6.80285e+00   4.07344e+00   9.52007e+00 -6.01473e-02   9.43856e-03  -3.87171e-02
Si    9.51942e+00   1.36710e+00   9.51642e+00  1.42956e-01  -4.46346e-02   9.88803e-02
Si    1.08778e+01   5.44113e+00   5.43907e+00  1.08921e-01   3.86258e-02   2.75942e-02
Si    2.73053e+00   8.15883e+00   5.44710e+00 -2.59531e-01  -3.30224e-02  -5.75485e-02
Si    4.56435e-03   8.15858e+00   8.16274e+00 -8.69911e-02   5.92962e-02  -1.37628e-02
Si    2.72206e+00   5.44541e+00   8.15834e+00  1.62515e-02  -1.25837e-01   1.18465e-01
Si    1.36048e+00   6.79473e+00   6.81027e+00 -1.37787e-03   9.54096e-02  -2.14384e-01
Si    4.07906e+00   9.52098e+00   6.79529e+00  1.08166e-02   8.65575e-02   1.79527e-01
Si    1.35689e+00   9.51871e+00   9.52698e+00  5.52537e-02   5.42394e-02  -6.95222e-02
Si    4.08859e+00   6.80160e+00   9.51681e+00 -1.54117e-01   6.32859e-03   1.53349e-01
Si    5.45150e+00   5.45052e+00   5.43613e+00 -1.71922e-01  -2.18693e-01   9.97930e-02
Si    8.16080e+00   8.16022e+00   5.44275e+00 -4.13578e-03   9.50288e-03  -4.06038e-02
Si    5.43373e+00   8.16650e+00   8.16562e+00  2.10842e-01  -7.38900e-03  -1.23359e-01
Si    8.15982e+00   5.44525e+00   8.16826e+00  1.38124e-01  -1.60965e-01  -8.41198e-02
Si    6.80701e+00   6.79697e+00   6.80548e+00 -1.10455e-01   1.81296e-01   4.33591e-02
Si    9.52173e+00   9.52184e+00   6.80004e+00  6.15822e-02  -6.32439e-03   3.33720e-02
Si    6.80216e+00   9.52923e+00   9.52416e+00 -4.26661e-02   7.94854e-02  -5.53954e-02
Si    9.52694e+00   6.80231e+00   9.52185e+00 -8.50175e-02   4.60368e-02   2.98746e-02
