64
Lattice="10.42752 0 0 0 10.42752 0 0 0 10.42752 " PBC="1 1 1" Properties=species:S:1:pos:R:3:force:R:3 Energy="-271.21852443"
Si    7.51530e-04   1.04269e+01   8.50093e-04 -1.49268e-02   3.45343e-02  -1.50407e-02
Si    2.60513e+00   2.60929e+00   1.04267e+01  6.01832e-02  -9.61470e-02   3.69098e-02
Si    2.56387e-03   2.60550e+00   2.60733e+00 -7.05828e-02   3.28318e-02   9.73214e-03
Si    2.60639e+00   1.04256e+01   2.60711e+00  2.04729e-03   5.21749e-02   1.24349e-02
Si    1.30353e+00   1.30483e+00   1.30570e+00  2.86255e-02  -4.62468e-02  -5.73000e-02
Si    3.90818e+00   3.90873e+00   1.30602e+00  6.60434e-02   1.19157e-02  -6.66560e-02
Si    1.30206e+00   3.90896e+00   3.91099e+00  3.13601e-02   2.84451e-02  -4.39372e-02
Si    3.91154e+00   1.30442e+00   3.90788e+00 -3.54166e-02  -3.06259e-02   6.50106e-02
Si    5.21586e+00   1.04264e+01   2.89951e-04 -2.93071e-02   2.53512e-03   3.32013e-03
Si    7.82000e+00   2.60441e+00   1.04275e+01 -4.50626e-03   6.82650e-02  -2.42571e-02
Si    5.21551e+00   2.60619e+00   2.60696e+00 -3.30400e-02   1.11885e-02  -2.92721e-02
Si    7.82050e+00   1.04269e+01   2.60815e+00  1.68927e-02   4.54431e-02  -3.92055e-02
Si    6.51634e+00   1.30394e+00   1.30248e+00  3.38711e-02  -4.18094e-02   3.33423e-02
Si    9.12328e+00   3.90899e+00   1.30447e+00  2.18552e-03  -2.96422e-02   1.63652e-02
Si    6.51570e+00   3.90911e+00   3.90966e+00  3.21985e-02   4.10480e-02   2.19194e-02
Si    9.12446e+00   1.30562e+00   3.91198e+00 -2.71752e-02  -3.08252e-02  -5.74874e-02
Si    1.04258e+01   5.21128e+00   1.48412e-03  4.88127e-03   5.76416e-02  -2.59403e-02
Si    2.60565e+00   7.81980e+00   1.63905e-03  3.17472e-02   4.88205e-02  -3.43852e-02
Si    1.60300e-03   7.82061e+00   2.60868e+00 -3.60119e-02  -2.76242e-03  -3.92767e-02
Si    2.60618e+00   5.21140e+00   2.60565e+00 -2.21924e-02   4.86955e-02   4.44612e-02
Si    1.30325e+00   6.51821e+00   1.30247e+00 -1.98318e-02  -5.67476e-02   3.34510e-02
Si    3.91012e+00   9.12575e+00   1.30440e+00  1.37554e-02  -5.63620e-02  -1.09878e-02
Si    1.30252e+00   9.12448e+00   3.91101e+00  4.77985e-03   7.96119e-03   7.67497e-03
Si    3.91082e+00   6.51531e+00   3.91094e+00 -6.63709e-02   2.86532e-02   5.63226e-03
Si    5.21373e+00   5.21190e+00   1.04251e+01 -8.50852e-03   3.40608e-02   1.02356e-01
Si    7.82293e+00   7.81937e+00   1.04252e+01 -6.57044e-02   7.40345e-02   3.09243e-02
Si    5.21317e+00   7.81989e+00   2.60942e+00  2.86825e-03  -2.24751e-03  -7.59715e-02
Si    7.82293e+00   5.21419e+00   2.60945e+00 -5.66705e-02  -1.76835e-02  -5.32998e-02
Si    6.51975e+00   6.51910e+00   1.30168e+00 -4.07145e-02  -5.76061e-02   3.47522e-02
Si    9.12339e+00   9.12307e+00   1.30261e+00  2.24080e-02   8.98355e-04   3.47076e-02
Si    6.51611e+00   9.12480e+00   3.90798e+00  8.25096e-04  -7.75794e-03   7.46543e-02
Si    9.12635e+00   6.51473e+00   3.91048e+00 -3.54010e-02   8.60751e-02   3.87753e-02
Si    1.04253e+01   9.98406e-04   5.21176e+00  3.53296e-03  -2.94956e-02   3.84480e-02
Si    2.60528e+00   2.60903e+00   5.21277e+00  3.71262e-02  -6.51587e-02   1.42036e-02
Si    1.04266e+01   2.60848e+00   7.82017e+00  6.39598e-02  -3.59855e-02   2.29448e-02
Si    2.60694e+00   1.04257e+01   7.81873e+00 -1.42487e-02   4.96056e-02   4.03949e-02
Si    1.30091e+00   1.30281e+00   6.51510e+00  3.49169e-02   1.80764e-02   2.28000e-02
Si    3.91002e+00   3.90884e+00   6.51890e+00  2.11700e-02   4.73667e-02  -2.84311e-02
Si    1.30438e+00   3.90912e+00   9.12646e+00 -3.34493e-02   6.53713e-02  -7.52893e-02
Si    3.91284e+00   1.30238e+00   9.12470e+00 -6.98444e-02   5.02123e-03   5.08288e-03
Si    5.21204e+00   1.04254e+01   5.21586e+00  2.59256e-02   5.37638e-02  -2.88262e-02
Si    7.81829e+00   2.60503e+00   5.21323e+00  3.69363e-02   6.15032e-02   3.89830e-02
Si    5.21424e+00   2.60780e+00   7.82319e+00 -6.97042e-03  -9.40986e-03  -2.84101e-02
Si    7.81984e+00   1.04264e+01   7.82171e+00 -1.93730e-03   4.65666e-02   4.72173e-03
Si    6.51683e+00   1.30511e+00   6.51913e+00 -2.35332e-02  -5.80959e-02  -1.08553e-02
Si    9.12554e+00   3.90879e+00   6.51903e+00 -5.92939e-02   4.18656e-02  -7.47073e-02
Si    6.51651e+00   3.91241e+00   9.12301e+00  4.69103e-02  -5.79535e-02   3.12713e-02
Si    9.12480e+00   1.30495e+00   9.12267e+00 -2.96394e-03  -5.23842e-02   2.80085e-02
Si    1.16043e-03   5.21259e+00   5.21142e+00 -2.07727e-02  -1.71473e-02   7.58855e-02
Si    2.60444e+00   7.82167e+00   5.21518e+00  5.08055e-02  -3.67609e-02  -2.18982e-02
Si    1.87568e-03   7.81931e+00   7.81826e+00 -7.01592e-02   8.32841e-03   3.78228e-02
Si    2.60923e+00   5.21558e+00   7.82210e+00 -3.64693e-02  -3.04690e-02   1.35191e-02
Si    1.30292e+00   6.51592e+00   6.51717e+00  2.38883e-02  -2.11836e-02  -1.69080e-02
Si    3.91058e+00   9.12238e+00   6.51944e+00 -4.43274e-02   1.45325e-02  -5.80763e-02
Si    1.30177e+00   9.12291e+00   9.12287e+00  4.15650e-02   3.86727e-03   1.79827e-02
Si    3.91227e+00   6.51897e+00   9.12559e+00 -2.44915e-02  -1.01117e-03  -1.35342e-02
Si    5.21478e+00   5.21567e+00   5.21396e+00 -1.31288e-02  -6.56431e-02   2.56551e-02
Si    7.81962e+00   7.82256e+00   5.21467e+00  5.60807e-02  -1.24635e-02  -6.57002e-02
Si    5.21218e+00   7.82215e+00   7.81905e+00  5.53255e-02  -5.56858e-02   2.69826e-02
Si    7.82091e+00   5.21401e+00   7.82175e+00  7.59439e-03   2.28506e-02  -3.69494e-02
Si    6.51900e+00   6.51904e+00   6.51550e+00 -3.02436e-02  -1.74820e-02   5.53052e-02
Si    9.12299e+00   9.12557e+00   6.51905e+00  2.91108e-02  -1.96415e-02  -3.62919e-02
Si    6.51604e+00   9.12309e+00   9.12315e+00  2.68409e-02  -1.45504e-02   1.56478e-02
Si    9.12179e+00   6.51967e+00   9.12549e+00  1.01833e-01  -7.69564e-02  -5.31887e-02
