8
Lattice="5.659102 0 0 0 5.659102 0 0 0 5.659102 " PBC="1 1 1" Properties=species:S:1:pos:R:3:force:R:3 Energy="-33.9486718256"
Si    0.00000e+00   0.00000e+00   0.00000e+00 -4.44089e-15  -2.57317e-16  -2.57317e-16
Si    2.82955e+00   2.82955e+00   0.00000e+00 -3.33067e-16  -2.22045e-16  -2.22045e-16
Si    0.00000e+00   2.82955e+00   2.82955e+00 -2.22045e-15   1.82204e-15  -2.39160e-15
Si    2.82955e+00   0.00000e+00   2.82955e+00 -4.44089e-16   0.00000e+00  -3.33067e-16
Si    1.41478e+00   1.41478e+00   1.41478e+00  0.00000e+00  -5.04871e-29  -2.22045e-16
Si    4.24433e+00   4.24433e+00   1.41478e+00  4.80923e-15   5.14633e-16   3.52721e-17
Si    1.41478e+00   4.24433e+00   4.24433e+00 -2.22045e-16   5.55112e-16   5.55112e-16
Si    4.24433e+00   1.41478e+00   4.24433e+00  2.69981e-15  -2.18517e-15   2.73508e-15
