64
Lattice="11.035792 0 0 0 11.035792 0 0 0 11.035792 " PBC="1 1 1" Properties=species:S:1:pos:R:3:force:R:3 Energy="-276.59562479"
Si    1.10292e+01   6.67842e-03   1.10324e+01 -3.07736e-02  -1.09428e-01   2.32266e-02
Si    2.75533e+00   2.76422e+00   3.21857e-03 -2.27668e-02  -1.53646e-01  -4.74876e-02
Si    1.10358e+01   2.76337e+00   2.75543e+00 -3.32643e-02  -7.01343e-02   1.30303e-01
Si    2.76059e+00   1.10311e+01   2.76368e+00  2.60867e-03   1.15935e-01  -1.20207e-01
Si    1.37000e+00   1.37149e+00   1.38298e+00  1.59696e-01   1.09648e-01  -2.08349e-02
Si    4.14030e+00   4.13764e+00   1.37270e+00 -5.80344e-02   3.77151e-02   1.34021e-01
Si    1.38292e+00   4.14830e+00   4.13846e+00 -7.50605e-02  -1.06460e-01  -4.82460e-02
Si    4.14289e+00   1.38116e+00   4.13555e+00  7.21490e-02  -9.68327e-02   6.58733e-03
Si    5.51309e+00   1.10340e+01   1.10301e+01  8.73620e-02  -2.03342e-02   9.84057e-02
Si    8.27463e+00   2.76054e+00   1.10311e+01 -8.63805e-02  -4.56073e-02  -8.70333e-04
Si    5.52351e+00   2.76413e+00   2.75499e+00 -9.31224e-02  -4.79733e-02   4.05031e-02
Si    8.26837e+00   1.10356e+01   2.75268e+00  7.23565e-02  -4.26200e-02   9.78291e-02
Si    6.89079e+00   1.37677e+00   1.38296e+00  4.05609e-02   5.26751e-02  -1.79791e-01
Si    9.65726e+00   4.13081e+00   1.37017e+00 -1.30263e-02   1.60768e-01   8.96858e-02
Si    6.90284e+00   4.13136e+00   4.13943e+00 -1.79256e-02   1.31374e-01  -1.19618e-01
Si    9.64911e+00   1.37529e+00   4.13930e+00  5.12543e-02   6.17062e-02  -8.65095e-02
Si    7.31823e-03   5.52444e+00   9.62366e-03 -2.61968e-01  -2.88954e-02  -1.65286e-01
Si    2.75653e+00   8.27181e+00   5.11536e-03 -5.02887e-02   5.35822e-02  -8.37606e-02
Si    6.92394e-03   8.27513e+00   2.76231e+00 -1.56993e-01   4.41190e-03   1.78011e-02
Si    2.75632e+00   5.52347e+00   2.75352e+00  7.74635e-02  -6.68204e-02  -1.88983e-02
Si    1.37185e+00   6.89663e+00   1.37995e+00  1.48323e-01   7.34000e-02   6.23436e-02
Si    4.13138e+00   9.65724e+00   1.37229e+00  1.15082e-01  -5.27434e-02   1.19899e-01
Si    1.38097e+00   9.66104e+00   4.13157e+00  1.72807e-02  -1.06151e-01   2.21831e-01
Si    4.14380e+00   6.89286e+00   4.13232e+00  2.09261e-02   3.65981e-02   7.36939e-03
Si    5.51774e+00   5.51256e+00   1.31142e-03  1.06590e-01   1.38198e-01  -1.34569e-02
Si    8.27921e+00   8.27890e+00   1.44790e-04  7.23213e-02  -6.41875e-02   3.21795e-02
Si    5.52590e+00   8.27685e+00   2.75493e+00 -1.70057e-01  -2.78723e-02  -9.08165e-02
Si    8.27959e+00   5.52250e+00   2.75368e+00  4.08738e-02  -1.66512e-01   6.64433e-02
Si    6.90614e+00   6.89968e+00   1.37923e+00 -1.12282e-01  -5.05945e-02  -7.67606e-02
Si    9.65501e+00   9.65473e+00   1.38499e+00  5.78247e-02   3.32586e-02  -6.94136e-02
Si    6.89694e+00   9.64686e+00   4.12971e+00  3.82889e-02   1.08892e-01   1.57689e-01
Si    9.65527e+00   6.89341e+00   4.14447e+00 -8.55710e-03   1.16141e-01  -1.10117e-01
Si    1.10298e+01   1.10348e+01   5.52023e+00  9.02424e-02   1.79279e-02  -3.11716e-02
Si    2.75863e+00   2.75190e+00   5.50733e+00  1.81989e-02   1.70436e-01   1.02929e-01
Si    7.42710e-03   2.75945e+00   8.27475e+00 -8.14583e-02   1.36004e-01   5.81635e-02
Si    2.75972e+00   1.10293e+01   8.28080e+00 -4.09587e-03   1.38259e-01  -5.07856e-02
Si    1.38107e+00   1.38735e+00   6.89798e+00  2.56782e-02  -2.04766e-01  -3.31839e-02
Si    4.13096e+00   4.14484e+00   6.89490e+00  7.16232e-02  -2.01494e-01  -1.34242e-03
Si    1.37177e+00   4.14768e+00   9.66429e+00  1.06533e-01  -1.07018e-01  -5.98346e-02
Si    4.14581e+00   1.37911e+00   9.65681e+00 -1.77081e-01   5.35506e-02  -1.61232e-02
Si    5.51971e+00   1.10258e+01   5.52338e+00 -3.64779e-02   5.07464e-02  -1.81828e-01
Si    8.26840e+00   2.75409e+00   5.51509e+00  1.89922e-01   6.30483e-02   1.64686e-01
Si    5.52068e+00   2.75653e+00   8.27514e+00 -6.29025e-02   8.46563e-02  -6.92195e-02
Si    8.27201e+00   5.92435e-03   8.26815e+00  9.64017e-02  -1.51120e-01   1.28153e-01
Si    6.89398e+00   1.37243e+00   6.89462e+00 -3.11263e-02   9.41680e-02  -1.51044e-02
Si    9.65951e+00   4.14806e+00   6.90386e+00 -6.33514e-02  -2.75477e-01  -1.82147e-01
Si    6.89742e+00   4.14536e+00   9.64849e+00 -4.50741e-02  -1.54602e-01   9.58063e-02
Si    9.65559e+00   1.38794e+00   9.64985e+00 -3.24608e-02  -6.91954e-02  -2.38128e-02
Si    1.10291e+01   5.52034e+00   5.51566e+00  1.26974e-01  -2.45683e-02   6.58418e-02
Si    2.76851e+00   8.27294e+00   5.51692e+00 -1.40505e-01   2.91305e-02  -9.19690e-02
Si    1.10300e+01   8.28178e+00   8.27299e+00  8.00061e-02  -8.46489e-02   1.08697e-02
Si    2.75828e+00   5.51508e+00   8.28175e+00  1.04335e-02   1.50616e-01   4.08539e-02
Si    1.37993e+00   6.89511e+00   6.89452e+00 -1.11552e-02   4.37067e-02   4.52354e-02
Si    4.13624e+00   9.65394e+00   6.89634e+00  5.54907e-02  -4.07358e-02   7.40997e-02
Si    1.37694e+00   9.65769e+00   9.65845e+00 -2.47451e-02  -5.15676e-02   2.47821e-02
Si    4.14772e+00   6.90446e+00   9.66268e+00 -1.08989e-01  -1.26826e-01  -9.08293e-02
Si    5.51923e+00   5.50878e+00   5.51246e+00  2.78045e-02   1.14101e-01   4.76953e-02
Si    8.27382e+00   8.27325e+00   5.52243e+00  9.02074e-03   1.29750e-03  -1.73531e-01
Si    5.52421e+00   8.27340e+00   8.27127e+00 -1.52553e-02   1.03816e-01   1.02143e-01
Si    8.27300e+00   5.50734e+00   8.27104e+00  2.97366e-02   2.55820e-01   3.87885e-02
Si    6.89989e+00   6.89986e+00   6.89357e+00 -6.36647e-02  -1.90390e-01   2.85479e-04
Si    9.65045e+00   9.64830e+00   6.88977e+00 -1.75955e-03   1.58033e-01   1.01864e-01
Si    6.90447e+00   9.65180e+00   9.66501e+00 -9.12197e-02   9.72705e-02  -2.08077e-01
Si    9.65133e+00   6.89692e+00   9.64996e+00  6.27947e-02  -5.76688e-02   7.27203e-02
