64
Lattice="11.817856 0 0 0 11.817856 0 0 0 11.817856 " PBC="1 1 1" Properties=species:S:1:pos:R:3:force:R:3 Energy="-253.472997221"
Si    2.47698e-04   1.18123e+01   5.22504e-03  1.00283e-02   1.04647e-01  -8.01922e-02
Si    2.95838e+00   2.95303e+00   1.18168e+01 -1.85085e-02   7.22538e-02   5.30523e-02
Si    1.18122e+01   2.95345e+00   2.96244e+00  5.81152e-02  -3.40821e-04  -8.28086e-02
Si    2.94814e+00   1.18138e+01   2.95194e+00  5.90736e-02  -1.23946e-02   7.98552e-03
Si    1.48013e+00   1.47808e+00   1.47439e+00 -6.57234e-02   5.47599e-03   5.55163e-02
Si    4.44179e+00   4.42945e+00   1.48480e+00 -6.97934e-02  -3.73966e-02  -8.40595e-02
Si    1.46984e+00   4.43127e+00   4.44060e+00  5.59775e-02   2.29872e-02  -7.22519e-02
Si    4.42288e+00   1.46733e+00   4.43862e+00  8.84706e-02   1.03469e-01  -7.44051e-02
Si    5.90948e+00   1.18088e+01   1.18105e+01 -4.75258e-02   1.26118e-01   4.64769e-02
Si    8.86737e+00   2.96470e+00   1.18117e+01 -5.03692e-02  -8.79152e-02   7.22055e-02
Si    5.91828e+00   2.94856e+00   2.94622e+00 -1.22599e-01  -7.04073e-02   1.31840e-01
Si    8.86424e+00   1.18123e+01   2.96018e+00  4.65474e-02   4.79562e-02  -5.98128e-02
Si    7.39156e+00   1.47580e+00   1.47478e+00  2.08718e-02  -4.57295e-02  -6.59806e-02
Si    1.03455e+01   4.43459e+00   1.47213e+00 -1.33600e-02  -4.68173e-02   6.95149e-02
Si    7.38459e+00   4.42521e+00   4.42366e+00 -2.32014e-02   7.29428e-02   1.46178e-01
Si    1.03424e+01   1.47464e+00   4.43853e+00 -1.00099e-01   4.28506e-02  -4.34816e-02
Si    8.61810e-03   5.90262e+00   2.03287e-03 -1.16488e-01   1.27384e-01  -3.62749e-03
Si    2.95590e+00   8.85686e+00   1.18169e+01 -3.72787e-02   1.19982e-02   7.10476e-02
Si    2.06476e-03   8.86398e+00   2.95471e+00  1.86251e-04  -2.20533e-02  -2.46609e-02
Si    2.96112e+00   5.90242e+00   2.95885e+00 -5.95518e-02  -5.55889e-03   3.13079e-02
Si    1.47859e+00   7.37856e+00   1.48552e+00  4.12077e-02   3.26333e-02  -5.19226e-02
Si    4.43117e+00   1.03350e+01   1.47745e+00  1.22827e-02   3.24208e-02   1.55828e-03
Si    1.48320e+00   1.03322e+01   4.43119e+00 -8.41861e-02   8.55261e-02   5.81201e-03
Si    4.43213e+00   7.38317e+00   4.43394e+00  3.46363e-02   5.78246e-02  -4.63290e-02
Si    5.91082e+00   5.90169e+00   1.18089e-03 -4.02080e-02   1.02152e-01   2.30841e-02
Si    8.86268e+00   8.86783e+00   1.18169e+01 -3.04839e-02   6.83746e-03  -1.55738e-02
Si    5.91556e+00   8.87366e+00   2.96503e+00 -7.96694e-02  -1.28204e-01  -8.34455e-02
Si    8.86527e+00   5.90157e+00   2.95532e+00 -2.07122e-02   9.17600e-02  -6.58494e-02
Si    7.38172e+00   7.39068e+00   1.47508e+00  6.11883e-02  -4.25742e-02   6.56722e-02
Si    1.03468e+01   1.03435e+01   1.47169e+00 -7.53870e-02  -5.87513e-02   1.04348e-01
Si    7.39145e+00   1.03376e+01   4.43519e+00 -8.99740e-03   5.41314e-02   7.03335e-02
Si    1.03448e+01   7.38456e+00   4.42855e+00 -4.34010e-02   1.85606e-02   2.33909e-02
Si    1.18152e+01   5.57317e-03   5.90278e+00  7.39985e-02  -1.40607e-01   4.54275e-02
Si    2.94529e+00   2.95655e+00   5.91357e+00  6.89138e-02  -2.38927e-02  -1.67463e-02
Si    1.18114e+01   2.94796e+00   8.86148e+00  3.43234e-02   9.09178e-02   3.94423e-02
Si    2.94960e+00   3.58317e-03   8.85961e+00 -1.72412e-02  -5.68301e-02   2.25815e-02
Si    1.47008e+00   1.47532e+00   7.38118e+00  1.23252e-02   2.24287e-02   4.22718e-02
Si    4.43314e+00   4.43633e+00   7.38405e+00 -2.35389e-02  -7.88566e-02   6.64595e-02
Si    1.47564e+00   4.43646e+00   1.03483e+01  3.32555e-02  -1.35336e-01  -1.14084e-01
Si    4.42295e+00   1.48107e+00   1.03359e+01  7.79830e-02  -1.07427e-01   4.60252e-02
Si    5.91105e+00   1.18150e+01   5.91619e+00  3.66148e-02   3.54354e-02  -3.76030e-02
Si    8.85988e+00   2.95345e+00   5.91647e+00  1.04467e-02  -1.08509e-02  -1.12107e-01
Si    5.90633e+00   2.94637e+00   8.86647e+00  3.65002e-03   1.14649e-01  -3.70772e-02
Si    8.86450e+00   1.18122e+01   8.85755e+00  3.01836e-02   5.83591e-02   6.60710e-02
Si    7.39261e+00   1.47939e+00   7.39391e+00 -8.29121e-02  -6.24793e-02  -4.73191e-02
Si    1.03348e+01   4.42922e+00   7.38064e+00  5.90740e-02   8.09251e-02   8.00568e-02
Si    7.37931e+00   4.43103e+00   1.03447e+01  6.37572e-02   8.68817e-03  -9.83924e-02
Si    1.03342e+01   1.47678e+00   1.03430e+01  5.47840e-02  -5.72520e-02  -2.25887e-02
Si    3.04934e-03   5.91708e+00   5.91028e+00 -4.81138e-02  -6.45972e-02   2.33638e-02
Si    2.95811e+00   8.85834e+00   5.90273e+00  3.45264e-02   6.42352e-02   6.37944e-02
Si    7.51983e-03   8.85682e+00   8.86793e+00 -6.50716e-02   3.24529e-02  -1.51399e-02
Si    2.95974e+00   5.90599e+00   8.87001e+00 -5.21437e-02   6.12437e-02  -5.76645e-02
Si    1.48513e+00   7.39124e+00   7.38150e+00 -7.62873e-04  -7.98073e-02   8.66401e-02
Si    4.43335e+00   1.03429e+01   7.38539e+00 -6.61637e-02  -4.11977e-02   9.14488e-03
Si    1.47571e+00   1.03371e+01   1.03471e+01  4.72875e-02   1.89898e-02  -5.23509e-02
Si    4.43281e+00   7.38756e+00   1.03438e+01  2.17127e-02  -6.72606e-02   2.25082e-03
Si    5.90275e+00   5.91870e+00   5.91491e+00  1.01711e-01  -1.60811e-01  -1.38024e-01
Si    8.86614e+00   8.86103e+00   5.91179e+00  6.63560e-02   1.44480e-02  -3.73073e-02
Si    5.90265e+00   8.86447e+00   8.86535e+00  1.00534e-01  -4.63919e-02  -8.48268e-02
Si    8.86063e+00   5.91508e+00   8.86376e+00 -2.60849e-02  -1.22117e-01  -2.11803e-02
Si    7.39089e+00   7.38109e+00   7.37575e+00 -8.74749e-02   1.18487e-01   1.57488e-01
Si    1.03491e+01   1.03406e+01   7.38987e+00 -1.75987e-02  -4.02229e-02  -4.76835e-02
Si    7.38423e+00   1.03448e+01   1.03324e+01  2.93170e-02  -8.30082e-02   3.18849e-02
Si    1.03315e+01   7.38449e+00   1.03421e+01  1.45308e-01  -4.09890e-03   3.22700e-02
