64
Lattice="10.123384 0 0 0 10.123384 0 0 0 10.123384 " PBC="1 1 1" Properties=species:S:1:pos:R:3:force:R:3 Energy="-258.206422038"
Si    2.85186e-03   1.01160e+01   3.14060e-03 -2.57062e-01   2.59962e-01  -6.34970e-02
Si    2.52414e+00   2.53513e+00   3.27409e-03  7.19258e-02  -1.16841e-01  -6.21954e-02
Si    7.65950e-03   2.52906e+00   2.52839e+00 -2.22780e-01   3.36107e-02  -3.33249e-02
Si    2.53791e+00   1.23042e-03   2.53376e+00  9.70423e-03   1.99601e-02  -4.08199e-02
Si    1.26824e+00   1.26174e+00   1.26856e+00  2.70661e-02  -3.90178e-02  -4.78101e-02
Si    3.79646e+00   3.80028e+00   1.25856e+00 -6.11013e-02   4.31037e-02   1.09373e-01
Si    1.25926e+00   3.79445e+00   3.79795e+00  1.88235e-01   7.23065e-02  -1.07451e-01
Si    3.79918e+00   1.26182e+00   3.80235e+00  1.37704e-02   4.92032e-02  -8.07623e-02
Si    5.05354e+00   1.01179e+01   1.01201e+01  1.60274e-01   1.40770e-01   1.51730e-01
Si    7.59070e+00   2.53804e+00   4.29647e-03  2.64484e-02   2.65496e-02  -2.36986e-01
Si    5.05406e+00   2.52691e+00   2.52160e+00  1.22171e-01   8.71129e-02   1.60200e-01
Si    7.58878e+00   1.01182e+01   2.52783e+00  6.97276e-02   6.55815e-02   1.04405e-02
Si    6.32985e+00   1.26968e+00   1.25862e+00 -1.53976e-01  -2.01990e-01   2.51755e-02
Si    8.85611e+00   3.80274e+00   1.26495e+00  6.04075e-02  -1.84829e-01   1.46932e-01
Si    6.32621e+00   3.79701e+00   3.79650e+00 -1.82328e-01  -1.10939e-01  -1.05898e-01
Si    8.86272e+00   1.26050e+00   3.79513e+00 -1.40801e-01   1.01796e-01  -8.85465e-02
Si    1.01182e+01   5.05330e+00   1.01199e+01  2.02971e-01   1.64599e-01   1.58225e-02
Si    2.52981e+00   7.58596e+00   1.01203e+01  8.99381e-02   3.38833e-01   6.85999e-03
Si    5.34922e-03   7.58545e+00   2.53549e+00 -5.74026e-02   1.60583e-01  -1.85562e-01
Si    2.53561e+00   5.06761e+00   2.53670e+00 -1.53718e-01  -1.65081e-01  -1.39820e-01
Si    1.27151e+00   6.33063e+00   1.25786e+00 -1.76284e-01  -2.61167e-01   1.17617e-01
Si    3.80069e+00   8.85671e+00   1.27163e+00 -1.80451e-01  -1.11911e-01  -1.58852e-01
Si    1.27093e+00   8.86220e+00   3.79152e+00 -1.63349e-01   1.73935e-02   2.27183e-01
Si    3.79594e+00   6.32360e+00   3.80023e+00  8.46072e-02   1.29345e-01   1.04350e-01
Si    5.06902e+00   5.06104e+00   2.47052e-05 -7.16166e-02   1.13277e-01   2.52497e-02
Si    7.58385e+00   7.58548e+00   1.72903e-03  1.66945e-01   1.10233e-01  -3.21775e-01
Si    5.06160e+00   7.58720e+00   2.52670e+00  5.03905e-02   4.71485e-02   2.24722e-01
Si    7.58885e+00   5.05882e+00   2.53176e+00 -9.73333e-03   1.16213e-01  -4.73365e-02
Si    6.33074e+00   6.33243e+00   1.26496e+00 -1.00314e-01  -2.48666e-01   8.10563e-02
Si    8.85282e+00   8.84925e+00   1.26078e+00  1.13243e-01  -4.56922e-02   1.49791e-01
Si    6.33056e+00   8.85288e+00   3.80059e+00 -1.04164e-02  -1.05239e-01  -1.43314e-01
Si    8.85079e+00   6.33015e+00   3.79100e+00  9.42498e-02  -1.29917e-01   1.14059e-01
Si    1.01204e+01   7.76855e-03   5.06907e+00  1.81201e-01  -1.94549e-01  -2.62430e-01
Si    2.52703e+00   2.52899e+00   5.05737e+00  4.72959e-02   3.07420e-02  -4.79450e-02
Si    7.66855e-03   2.53448e+00   7.59211e+00 -1.15504e-01  -1.19995e-01  -7.06880e-02
Si    2.53818e+00   1.34711e-03   7.58853e+00 -3.23551e-01   3.24844e-02   4.63052e-02
Si    1.26407e+00   1.27072e+00   6.31881e+00  1.25181e-01  -7.09407e-02   2.39348e-01
Si    3.79542e+00   3.79044e+00   6.31982e+00 -1.53750e-01   9.92490e-02   2.52270e-01
Si    1.26474e+00   3.79273e+00   8.85345e+00  8.32278e-02   1.68351e-01   6.81444e-02
Si    3.79098e+00   1.26002e+00   8.86313e+00 -2.18028e-02   1.95285e-01   5.30427e-03
Si    5.06932e+00   1.01186e+01   5.05778e+00 -1.09953e-01   1.14071e-02   1.44151e-01
Si    7.58813e+00   2.53010e+00   5.05739e+00  2.73672e-01   9.43782e-02   1.06755e-01
Si    5.05554e+00   2.53575e+00   7.60180e+00 -3.10318e-02  -2.18276e-01  -2.03048e-01
Si    7.59444e+00   4.92069e-03   7.59812e+00 -8.75508e-02  -6.80565e-02  -2.92594e-01
Si    6.32469e+00   1.26943e+00   6.32343e+00 -3.22253e-02  -1.69354e-02   2.01709e-01
Si    8.86521e+00   3.80148e+00   6.33400e+00 -1.64788e-01  -2.03073e-01  -1.97247e-01
Si    6.31935e+00   3.79862e+00   8.85355e+00  1.83594e-01  -7.42418e-02   1.71246e-01
Si    8.85326e+00   1.27038e+00   8.85004e+00  2.39209e-01   1.69868e-02   3.32045e-01
Si    1.01208e+01   5.05926e+00   5.05638e+00 -6.20579e-02   1.56774e-01   3.75696e-02
Si    2.52428e+00   7.58949e+00   5.06742e+00  1.39210e-01   1.04357e-01  -7.28674e-02
Si    1.80811e-03   7.58747e+00   7.59474e+00 -6.84760e-02   1.01381e-01  -1.17377e-01
Si    2.53343e+00   5.07059e+00   7.59690e+00 -6.01010e-03  -3.06146e-01  -1.65787e-01
Si    1.26367e+00   6.32290e+00   6.32756e+00 -6.91804e-02  -2.19902e-02  -6.35475e-03
Si    3.79745e+00   8.85968e+00   6.33166e+00  3.17909e-02  -7.56037e-02  -2.30084e-01
Si    1.25808e+00   8.86068e+00   8.85860e+00  2.89075e-01  -9.24495e-02  -1.03943e-01
Si    3.79463e+00   6.32292e+00   8.86228e+00  2.16376e-01   1.07493e-01  -4.62588e-02
Si    5.06037e+00   5.05640e+00   5.06797e+00  1.42319e-02   3.47501e-02  -1.66383e-01
Si    7.59859e+00   7.59245e+00   5.06750e+00 -1.22095e-01  -4.37620e-02  -2.51626e-02
Si    5.06120e+00   7.58940e+00   7.58555e+00 -2.94343e-02   1.30935e-02   2.26577e-01
Si    7.59365e+00   5.05406e+00   7.59738e+00 -1.15500e-01   1.40886e-01  -1.49672e-01
Si    6.32322e+00   6.32274e+00   6.32587e+00  2.16024e-01  -2.88540e-02   6.16218e-02
Si    8.86236e+00   8.86159e+00   6.32307e+00 -4.37958e-02  -4.00262e-02   2.82210e-01
Si    6.32289e+00   8.86514e+00   8.85559e+00  3.30607e-02  -2.31596e-01  -2.57175e-03
Si    8.86000e+00   6.31896e+00   8.85213e+00 -1.27186e-01   1.22586e-01   1.78548e-01
