64
Lattice="10.340624 0 0 0 10.340624 0 0 0 10.340624 " PBC="1 1 1" Properties=species:S:1:pos:R:3:force:R:3 Energy="-267.791584411"
Si    1.03348e+01   2.08103e-02   1.40305e-02 -3.97059e-01  -8.07025e-02  -7.54020e-01
Si    2.58441e+00   2.57105e+00   1.94683e-02 -1.08763e-01   4.26962e-01  -6.25314e-01
Si    1.03101e+01   2.56947e+00   2.55567e+00  5.25634e-01  -3.54461e-03   5.05749e-01
Si    2.60671e+00   1.03258e+01   2.56219e+00 -4.82852e-01   7.40298e-01   2.05668e-01
Si    1.26490e+00   1.29625e+00   1.27030e+00  7.04519e-01  -2.42012e-01   7.15168e-01
Si    3.88421e+00   3.87721e+00   1.27997e+00  3.16389e-01  -3.51700e-02   2.08998e-01
Si    1.27191e+00   3.86733e+00   3.85556e+00  4.65792e-02   3.43499e-02   2.60106e-01
Si    3.87044e+00   1.32750e+00   3.88660e+00  4.68216e-01  -9.12990e-01  -3.35184e-01
Si    5.17678e+00   1.03331e+01   2.05626e-02  2.88527e-01   3.14558e-01  -1.30308e-01
Si    7.72892e+00   2.58717e+00   1.03311e+01  3.38902e-01   3.57484e-01   2.58673e-01
Si    5.19055e+00   2.59927e+00   2.60107e+00 -4.68038e-01  -1.74052e-02  -2.52132e-01
Si    7.76494e+00   1.05062e-02   2.59177e+00 -3.86849e-03  -6.52196e-01   3.32186e-02
Si    6.47949e+00   1.31433e+00   1.32402e+00 -3.36610e-01  -4.49206e-01  -4.01861e-01
Si    9.07436e+00   3.86986e+00   1.28079e+00 -7.41009e-01  -7.78205e-02  -3.09326e-01
Si    6.48306e+00   3.85428e+00   3.88211e+00  1.93209e-02   8.12830e-01  -1.54184e-01
Si    9.06077e+00   1.28160e+00   3.87901e+00 -3.82709e-01   3.05320e-01  -7.93289e-02
Si    1.73837e-02   5.16417e+00   2.14851e-02 -5.03581e-01   3.72965e-01  -4.66541e-01
Si    2.60517e+00   7.74086e+00   1.91348e-02 -7.74415e-01   1.90122e-01  -3.91162e-01
Si    1.03364e+01   7.74512e+00   2.57454e+00 -2.78145e-02  -4.07536e-02   5.33390e-01
Si    2.60964e+00   5.15045e+00   2.59663e+00 -4.64072e-01   5.09594e-01  -1.06151e-01
Si    1.28099e+00   6.45846e+00   1.29772e+00  7.28894e-01  -1.66316e-01   2.90069e-01
Si    3.87616e+00   9.02900e+00   1.28449e+00  2.59846e-01   2.07984e-01   5.27158e-02
Si    1.27978e+00   9.06746e+00   3.86146e+00  3.85617e-01  -4.25273e-01   3.81088e-01
Si    3.86731e+00   6.48983e+00   3.90078e+00  1.40769e-01  -5.20253e-01  -2.86681e-01
Si    5.16875e+00   5.19107e+00   1.03277e+01  1.22284e-01  -4.47189e-01   2.73795e-01
Si    7.77258e+00   7.75432e+00   4.55589e-05 -5.20456e-01   2.48836e-01  -1.95070e-01
Si    5.14767e+00   7.74329e+00   2.57246e+00  4.13029e-01   6.34341e-02   2.80509e-01
Si    7.78013e+00   5.15919e+00   2.56544e+00 -2.57166e-01   3.21146e-03   3.76094e-01
Si    6.46189e+00   6.46243e+00   1.28757e+00  1.92870e-01   2.20274e-02   8.33249e-02
Si    9.07148e+00   9.04293e+00   1.28487e+00 -4.76043e-01   2.38776e-01   2.28128e-01
Si    6.45989e+00   9.02192e+00   3.88393e+00  1.85420e-02   3.40663e-01  -6.16766e-01
Si    9.05576e+00   6.44193e+00   3.90625e+00 -1.92499e-01   3.92290e-01  -5.74567e-01
Si    1.03226e+01   8.42202e-03   5.17073e+00  3.49126e-01  -2.59536e-01  -1.41539e-01
Si    2.60667e+00   2.60570e+00   5.16122e+00 -8.63555e-01  -5.71949e-02   8.70330e-02
Si    1.03160e+01   2.61562e+00   7.77979e+00  7.11968e-01  -6.08459e-01  -4.83677e-01
Si    2.57580e+00   1.03292e+01   7.77888e+00  2.89022e-01   7.10134e-01  -5.08512e-01
Si    1.27758e+00   1.29688e+00   6.43590e+00  2.76481e-01   3.37490e-01   8.27086e-01
Si    3.88573e+00   3.87883e+00   6.44831e+00 -8.87575e-02   4.23777e-01   7.51816e-02
Si    1.27560e+00   3.89627e+00   9.05698e+00  6.87118e-01  -3.32763e-01   1.32695e-02
Si    3.90507e+00   1.31104e+00   9.05264e+00 -6.29918e-01  -6.21593e-01   2.24987e-01
Si    5.18423e+00   1.03247e+01   5.16745e+00 -3.63121e-01   3.40746e-01  -3.14814e-02
Si    7.75524e+00   2.57503e+00   5.16236e+00  6.65115e-01   7.12934e-02   1.89318e-01
Si    5.14404e+00   2.58042e+00   7.73883e+00  9.55420e-01   8.93623e-02  -1.67506e-01
Si    7.75115e+00   2.37196e-03   7.76638e+00  3.35473e-01   4.98775e-02  -3.93505e-01
Si    6.49087e+00   1.28238e+00   6.44494e+00 -6.57645e-01   1.03785e-01   3.88944e-01
Si    9.07610e+00   3.87248e+00   6.45933e+00 -7.55154e-01  -3.58380e-02  -1.15329e-01
Si    6.45043e+00   3.88577e+00   9.04236e+00 -5.00959e-02  -3.56395e-02  -3.68247e-01
Si    9.02500e+00   1.32107e+00   9.03873e+00  1.71746e-01  -4.76915e-01   4.01736e-01
Si    1.03360e+01   5.17300e+00   5.19083e+00  6.44229e-01  -1.68219e-01  -3.27978e-01
Si    2.60838e+00   7.77144e+00   5.20180e+00 -8.02452e-01   3.11044e-01  -6.47897e-01
Si    6.47404e-03   7.72775e+00   7.73548e+00 -2.17538e-01   6.11222e-01   8.07201e-01
Si    2.57649e+00   5.17608e+00   7.73709e+00  1.76286e-01  -1.56692e-01   3.41834e-01
Si    1.30042e+00   6.47782e+00   6.45828e+00  8.55808e-02  -3.15323e-01  -1.98171e-01
Si    3.88566e+00   9.04170e+00   6.47724e+00 -1.05471e-01   6.25569e-01   4.00365e-02
Si    1.29019e+00   9.07049e+00   9.06347e+00 -1.99860e-01  -9.06568e-01   1.26831e-01
Si    3.87277e+00   6.45352e+00   9.06473e+00 -1.53135e-01   1.99181e-01  -6.20659e-01
Si    5.18163e+00   5.17957e+00   5.15777e+00 -1.03436e-01  -3.05461e-01  -1.15418e-01
Si    7.76031e+00   7.76653e+00   5.16848e+00 -4.91777e-02  -4.68452e-01   3.51045e-01
Si    5.14814e+00   7.76206e+00   7.75482e+00  3.64486e-01  -4.91122e-01   2.12329e-01
Si    7.78054e+00   5.16408e+00   7.74708e+00 -6.55487e-01  -2.32085e-01  -1.75650e-01
Si    6.44836e+00   6.45220e+00   6.46215e+00  4.44827e-01   3.93933e-01   1.60249e-01
Si    9.05606e+00   9.05438e+00   6.46407e+00 -1.79457e-01  -1.19153e-01   2.01152e-01
Si    6.46024e+00   9.05702e+00   9.02143e+00 -2.25929e-02  -3.41015e-01   7.17243e-01
Si    9.02391e+00   6.44292e+00   9.04976e+00  9.06991e-01   1.53742e-01   1.21994e-01
