64
Lattice="11.07924 0 0 0 11.07924 0 0 0 11.07924 " PBC="1 1 1" Properties=species:S:1:pos:R:3:force:R:3 Energy="-276.098960769"
Si    1.10792e+01   1.10725e+01   2.91561e-03  2.69715e-02   8.05045e-02  -3.45452e-02
Si    2.76612e+00   2.77272e+00   5.55911e-03  1.20289e-01  -6.43221e-02  -1.29060e-01
Si    1.10722e+01   2.76232e+00   2.76828e+00  1.62810e-01   9.04463e-02   1.23302e-02
Si    2.75998e+00   1.10783e+01   2.76669e+00  7.54343e-02  -6.52750e-02   9.89150e-02
Si    1.38964e+00   1.38285e+00   1.38425e+00 -1.54678e-01   1.89735e-02  -1.62470e-02
Si    4.15650e+00   4.15415e+00   1.38264e+00  1.99932e-02   7.51096e-02   4.89090e-02
Si    1.37880e+00   4.15636e+00   4.16325e+00 -4.79591e-03  -1.19522e-01  -1.52288e-01
Si    4.14836e+00   1.37800e+00   4.15627e+00  1.47495e-01   2.14848e-02  -7.32343e-02
Si    5.54281e+00   1.10758e+01   1.10746e+01 -2.01348e-02   3.50127e-02  -3.21499e-03
Si    8.30475e+00   2.76942e+00   3.98316e-03  9.36224e-02  -1.43643e-01  -8.76705e-02
Si    5.54433e+00   2.77560e+00   2.77772e+00 -1.18593e-01  -2.02376e-01  -1.27557e-01
Si    8.29968e+00   1.10727e+01   2.77358e+00  2.09688e-01   8.56771e-02  -5.30500e-02
Si    6.92599e+00   1.37697e+00   1.38555e+00 -8.58637e-02   1.03438e-01   3.96491e-02
Si    9.68969e+00   4.14765e+00   1.38499e+00  1.41242e-02   7.32604e-02   3.45665e-02
Si    6.92406e+00   4.15054e+00   4.15376e+00  3.18509e-02   1.65363e-01   1.04626e-01
Si    9.70109e+00   1.37913e+00   4.15057e+00 -1.79711e-01  -1.30023e-02   6.29316e-02
Si    1.10749e+01   5.54273e+00   9.08225e-03  9.55117e-02  -6.36527e-02  -9.89358e-02
Si    2.76955e+00   8.31499e+00   1.10779e+01 -1.25657e-02  -6.67331e-02   1.89170e-02
Si    1.10738e+01   8.30145e+00   2.76680e+00  2.72084e-02   8.83987e-02   1.48653e-01
Si    2.75981e+00   5.53694e+00   2.76687e+00  1.15762e-01  -1.14880e-02   9.80216e-02
Si    1.38617e+00   6.93203e+00   1.39477e+00 -2.57590e-02  -7.05111e-02  -1.93649e-01
Si    4.15278e+00   9.70157e+00   1.38292e+00  1.02665e-02  -3.82478e-02  -1.32674e-03
Si    1.38030e+00   9.68589e+00   4.15824e+00  2.36160e-02   1.68597e-02  -8.08582e-02
Si    4.14761e+00   6.92152e+00   4.15948e+00  1.30986e-01   4.16348e-02  -1.30874e-01
Si    5.54506e+00   5.54464e+00   1.10747e+01 -1.02352e-01  -1.22213e-01   9.45322e-03
Si    8.30774e+00   8.31563e+00   1.10704e+01  5.88227e-02  -9.40585e-02   1.28434e-01
Si    5.54272e+00   8.31597e+00   2.76525e+00 -1.18980e-01  -1.73841e-01   1.16356e-02
Si    8.30570e+00   5.53836e+00   2.76710e+00  3.12768e-02  -3.42226e-02   2.14450e-02
Si    6.92432e+00   6.91979e+00   1.37753e+00  4.33795e-02   1.63672e-01   5.18204e-02
Si    9.69801e+00   9.69681e+00   1.39216e+00 -1.40783e-01  -7.61962e-02  -9.59661e-02
Si    6.92943e+00   9.68929e+00   4.14675e+00 -1.77194e-01   8.76221e-02   1.75752e-01
Si    9.69470e+00   6.91827e+00   4.15691e+00 -9.85645e-02   3.46902e-02  -4.24825e-02
Si    1.10766e+01   1.10725e+01   5.53840e+00  7.60810e-02   1.08881e-01   5.55603e-02
Si    2.77537e+00   2.76542e+00   5.53281e+00 -1.19335e-01   9.83872e-02   1.76249e-01
Si    1.10735e+01   2.76927e+00   8.31096e+00  5.29141e-02   1.87463e-05   3.89721e-02
Si    2.76646e+00   5.17673e-03   8.31452e+00  3.67156e-02  -3.22477e-02  -5.56854e-02
Si    1.37988e+00   1.39131e+00   6.92930e+00  3.98917e-02  -9.08888e-02  -1.21401e-01
Si    4.14764e+00   4.16086e+00   6.93259e+00  1.15906e-01  -1.16622e-01  -1.95637e-01
Si    1.38721e+00   4.15171e+00   9.69002e+00 -8.44743e-02   1.09555e-01   9.97384e-02
Si    4.16397e+00   1.39086e+00   9.69091e+00 -1.45158e-01  -2.31289e-02   9.77614e-02
Si    5.54370e+00   2.20956e-03   5.54760e+00 -3.33588e-02  -9.86026e-02  -2.48492e-01
Si    8.31545e+00   2.77564e+00   5.53666e+00 -3.13131e-02  -1.57961e-01   3.94539e-02
Si    5.53792e+00   2.77334e+00   8.30432e+00  6.18165e-02   2.10557e-02   3.95355e-02
Si    8.30469e+00   1.10718e+01   8.30940e+00 -4.06199e-02   1.04941e-01  -2.24068e-02
Si    6.91908e+00   1.38298e+00   6.92141e+00  1.70512e-01   1.10669e-01   5.34405e-02
Si    9.69429e+00   4.15352e+00   6.93295e+00 -4.34034e-02   2.58278e-02  -9.24344e-02
Si    6.92740e+00   4.15096e+00   9.69760e+00 -4.17822e-02   6.41093e-02  -1.02085e-01
Si    9.69509e+00   1.37679e+00   9.68942e+00 -8.29734e-02   5.36145e-02   1.30718e-01
Si    1.10716e+01   5.53506e+00   5.54152e+00  5.80244e-02   3.34873e-02   5.39048e-02
Si    2.77554e+00   8.31162e+00   5.54257e+00 -8.41424e-02  -9.60066e-03  -4.64498e-02
Si    1.10698e+01   8.30485e+00   8.30052e+00  4.86870e-02   2.93866e-03   4.12806e-02
Si    2.77565e+00   5.53934e+00   8.30651e+00 -1.84292e-01   8.33176e-02   5.64962e-02
Si    1.38554e+00   6.92441e+00   6.91488e+00 -1.14457e-02  -3.56393e-02   1.03605e-01
Si    4.15494e+00   9.69986e+00   6.91967e+00 -3.53413e-02   3.59218e-02   1.25499e-01
Si    1.37807e+00   9.68946e+00   9.69072e+00  1.50413e-02   1.11878e-02  -1.59258e-02
Si    4.15383e+00   6.92343e+00   9.69322e+00  6.40742e-02   1.23481e-01  -4.16434e-02
Si    5.54115e+00   5.54306e+00   5.54769e+00 -6.91343e-02  -8.81238e-02  -8.96005e-02
Si    8.30184e+00   8.30924e+00   5.53409e+00  1.11654e-01  -3.61060e-02   8.36680e-02
Si    5.54189e+00   8.31988e+00   8.30390e+00 -1.70645e-01  -1.64319e-01   3.51643e-02
Si    8.30509e+00   5.54148e+00   8.30355e+00 -3.50863e-02  -7.19001e-02   8.58978e-02
Si    6.91795e+00   6.92779e+00   6.92804e+00  8.18920e-02   4.00219e-02  -5.94311e-02
Si    9.68842e+00   9.70160e+00   6.92274e+00 -3.00453e-02  -1.66828e-01  -5.29827e-02
Si    6.91955e+00   9.68599e+00   9.68772e+00  5.51952e-02   1.42594e-01   5.83467e-02
Si    9.68736e+00   6.91653e+00   9.69102e+00  5.50135e-02   9.91179e-02   2.37832e-02
