64
Lattice="11.578892 0 0 0 11.578892 0 0 0 11.578892 " PBC="1 1 1" Properties=species:S:1:pos:R:3:force:R:3 Energy="-263.145731457"
Si    1.15758e+01   1.15739e+01   1.15684e+01  2.87663e-01  -2.28685e-02   8.08467e-02
Si    2.86918e+00   2.88214e+00   1.15764e+01  3.55803e-01   1.65467e-01  -1.45427e-01
Si    6.79998e-03   2.88080e+00   2.88475e+00 -2.55636e-01   5.33875e-02  -8.83935e-02
Si    2.90348e+00   2.90469e-02   2.91942e+00 -7.74625e-02  -4.18304e-01  -1.48904e-01
Si    1.47179e+00   1.44277e+00   1.43437e+00 -3.77662e-01  -1.09904e-01   1.61873e-01
Si    4.35727e+00   4.31642e+00   1.42232e+00 -1.94607e-01   1.12664e-01   2.66545e-01
Si    1.44285e+00   4.33374e+00   4.32630e+00  8.75073e-02  -4.90279e-02   9.26355e-02
Si    4.35719e+00   1.46108e+00   4.35113e+00  9.73988e-02  -1.69032e-01   4.99177e-02
Si    5.79318e+00   2.20851e-02   1.15681e+01 -1.17410e-01  -9.06571e-02   1.58657e-01
Si    8.69586e+00   2.87933e+00   1.15695e+01 -4.92311e-02   2.73377e-01  -2.51794e-01
Si    5.81661e+00   2.86753e+00   2.88428e+00 -6.84540e-02   5.46659e-01   2.83253e-01
Si    8.68024e+00   2.00066e-02   2.88361e+00  1.67435e-01  -4.54072e-01  -4.56016e-02
Si    7.25872e+00   1.47291e+00   1.44395e+00 -1.25575e-01  -3.66432e-01  -1.79245e-01
Si    1.00983e+01   4.36066e+00   1.44371e+00  5.20154e-01  -4.99353e-01  -7.16299e-04
Si    7.25599e+00   4.36179e+00   4.37476e+00 -3.54043e-01  -2.56435e-01  -4.12494e-01
Si    1.01191e+01   1.42564e+00   4.34216e+00  1.97613e-01   3.79314e-01  -1.85134e-01
Si    8.85867e-03   5.78634e+00   2.82282e-02 -2.63210e-01  -6.65840e-02  -2.14358e-01
Si    2.91919e+00   8.71146e+00   1.15491e+01 -5.35161e-01  -3.42028e-01   6.01151e-01
Si    2.27551e-02   8.67685e+00   2.87278e+00 -4.28543e-01  -1.22734e-01   3.35638e-01
Si    2.87656e+00   5.79285e+00   2.87168e+00  3.12028e-01  -3.01726e-01   1.45006e-01
Si    1.42467e+00   7.21670e+00   1.45009e+00  5.73826e-01   4.74144e-01  -3.28238e-01
Si    4.34059e+00   1.01235e+01   1.44925e+00  6.88761e-02   4.10235e-01   6.17842e-02
Si    1.41416e+00   1.01305e+01   4.34961e+00  4.04226e-01   1.22961e-01  -1.40113e-01
Si    4.32931e+00   7.20944e+00   4.36767e+00 -1.55946e-01   2.66858e-01  -2.88902e-01
Si    5.78851e+00   5.78746e+00   1.15745e+01 -8.25652e-02   2.13528e-01  -1.22348e-01
Si    8.66308e+00   8.68889e+00   1.15508e+01  3.41138e-01   4.26851e-02   1.47148e-01
Si    5.77008e+00   8.68737e+00   2.91611e+00  2.59521e-01  -1.11294e-01  -2.41779e-02
Si    8.69631e+00   5.76006e+00   2.89772e+00 -4.05235e-01   5.89248e-01  -5.78847e-02
Si    7.24287e+00   7.26176e+00   1.42362e+00 -1.24477e-01  -3.50126e-01   4.32014e-01
Si    1.01564e+01   1.01100e+01   1.42784e+00 -4.17823e-01   2.27011e-01   9.05449e-02
Si    7.25803e+00   1.01343e+01   4.36435e+00 -1.84804e-01  -4.65922e-02  -3.40689e-01
Si    1.01190e+01   7.21914e+00   4.34422e+00  2.43874e-01   1.51991e-01  -3.83152e-01
Si    1.15744e+01   1.82040e-02   5.77974e+00 -1.04230e-01  -2.29880e-01   2.45645e-01
Si    2.90265e+00   2.88349e+00   5.79675e+00 -2.89048e-01   8.87788e-02  -1.00279e-01
Si    1.46709e-02   2.92195e+00   8.68117e+00 -6.11484e-02  -1.13295e-01   1.99834e-01
Si    2.90005e+00   1.15684e+01   8.70825e+00 -2.57631e-01   8.11537e-02  -2.83581e-01
Si    1.43055e+00   1.44692e+00   7.25787e+00  2.99360e-01  -2.72069e-02  -1.40747e-01
Si    4.32412e+00   4.34996e+00   7.21599e+00  8.20251e-02  -1.76248e-01   1.97651e-01
Si    1.45058e+00   4.36000e+00   1.01497e+01  1.13366e-02  -7.14342e-02  -1.59841e-01
Si    4.31806e+00   1.45045e+00   1.01140e+01  1.84047e-01   2.34444e-02   2.20904e-01
Si    5.79555e+00   1.15628e+01   5.79661e+00 -4.03650e-02   1.52773e-01   1.63922e-01
Si    8.70582e+00   2.91417e+00   5.76660e+00  2.12004e-02  -1.47958e-01   5.37225e-01
Si    5.76192e+00   2.87861e+00   8.65415e+00  1.75215e-01   2.04539e-01   1.21762e-01
Si    8.68314e+00   2.28442e-02   8.68033e+00  1.25611e-01  -4.80499e-01   7.81838e-02
Si    7.26220e+00   1.44404e+00   7.24437e+00 -2.46231e-01   2.05957e-01  -3.72205e-01
Si    1.01480e+01   4.37087e+00   7.25905e+00 -2.24083e-01  -2.58217e-01  -3.05042e-01
Si    7.21667e+00   4.34435e+00   1.01133e+01  7.03028e-02  -3.16998e-01   1.20173e-01
Si    1.01607e+01   1.43285e+00   1.01134e+01 -1.79473e-01   2.96785e-01   6.73364e-02
Si    1.15583e+01   5.77834e+00   5.76141e+00  2.90404e-01   1.39627e-01   3.24850e-01
Si    2.86701e+00   8.67577e+00   5.79466e+00  7.15829e-02   3.74449e-02   5.73697e-02
Si    1.71221e-02   8.69245e+00   8.68628e+00 -3.41345e-01  -4.12612e-02   1.41179e-01
Si    2.89970e+00   5.78799e+00   8.67124e+00 -1.66424e-01   2.00308e-01   1.97131e-01
Si    1.41981e+00   7.24243e+00   7.25016e+00  1.42743e-01  -2.78466e-01  -2.88377e-01
Si    4.32377e+00   1.01201e+01   7.25657e+00  1.54253e-01   4.97397e-02  -2.27902e-01
Si    1.45667e+00   1.01289e+01   1.01364e+01 -9.40846e-02   1.13023e-01  -6.01373e-02
Si    4.32196e+00   7.27064e+00   1.01350e+01  4.70850e-01  -3.65657e-01  -3.05434e-01
Si    5.76749e+00   5.78670e+00   5.80292e+00  1.67858e-01  -8.74848e-02  -9.97888e-02
Si    8.69245e+00   8.66275e+00   5.77373e+00 -1.85494e-01  -5.14919e-03   3.19640e-01
Si    5.81507e+00   8.70057e+00   8.67688e+00 -4.78386e-01  -2.63834e-01   5.61355e-02
Si    8.67587e+00   5.78309e+00   8.69804e+00  5.37717e-02   2.05449e-01  -5.58272e-02
Si    7.20967e+00   7.21602e+00   7.23524e+00  3.86364e-01   1.92907e-01   8.54313e-03
Si    1.01281e+01   1.01227e+01   7.22339e+00  4.19294e-02   1.46129e-01   9.97692e-02
Si    7.21579e+00   1.01295e+01   1.01260e+01  2.97516e-01   3.60291e-01  -6.90419e-02
Si    1.01452e+01   7.22643e+00   1.01537e+01 -7.76464e-02   1.12881e-01  -2.38491e-01
