64
Lattice="9.819248 0 0 0 9.819248 0 0 0 9.819248 " PBC="1 1 1" Properties=species:S:1:pos:R:3:force:R:3 Energy="-238.370947481"
Si    2.07136e-03   9.81373e+00   9.81509e+00  8.89446e-02   1.53595e-01   9.09135e-02
Si    2.45285e+00   2.46069e+00   2.02068e-04  1.65164e-01  -1.18624e-01   1.54272e-01
Si    4.68767e-03   2.45838e+00   2.45385e+00 -1.53909e-01  -6.98766e-02   1.52117e-01
Si    2.45376e+00   9.81570e+00   2.44766e+00 -5.76315e-02  -6.32873e-02   2.13333e-01
Si    1.22440e+00   1.22841e+00   1.23140e+00  4.50242e-02  -3.70756e-02  -2.34362e-01
Si    3.68623e+00   3.68900e+00   1.23365e+00 -2.03341e-01  -1.53164e-01  -9.91445e-02
Si    1.23560e+00   3.68481e+00   3.67681e+00 -2.18675e-01  -8.25696e-02   2.83558e-01
Si    3.67782e+00   1.22276e+00   3.68565e+00  2.14619e-01   7.71608e-02  -2.88710e-01
Si    4.91210e+00   9.81750e+00   9.81892e+00 -2.39158e-02   1.32737e-01   4.84467e-02
Si    7.36700e+00   2.45835e+00   9.81418e+00 -3.37890e-02  -2.81849e-02   7.97230e-02
Si    4.91286e+00   2.45782e+00   2.44877e+00 -6.09939e-02  -1.34097e-01   3.13814e-01
Si    7.35857e+00   9.81832e+00   2.45015e+00  2.61572e-01   7.39995e-02   2.12053e-01
Si    6.14408e+00   1.23103e+00   1.22889e+00 -1.44316e-01  -2.91075e-03  -2.10460e-01
Si    8.59680e+00   3.68201e+00   1.22341e+00 -2.27930e-01   2.45675e-02   2.08973e-01
Si    6.14080e+00   3.68018e+00   3.68898e+00 -1.37729e-01   2.44054e-02  -8.04243e-02
Si    8.59358e+00   1.22543e+00   3.68881e+00 -5.97990e-02   2.65516e-02  -2.35340e-01
Si    9.81767e+00   4.90711e+00   4.36557e-03  1.36812e-01   4.68022e-02  -2.58281e-01
Si    2.45235e+00   7.36024e+00   4.55637e-03 -8.22386e-02   1.62220e-02  -2.78694e-01
Si    6.61685e-03   7.35838e+00   2.45785e+00 -2.10985e-01   6.77605e-02  -6.93356e-02
Si    2.45655e+00   4.90645e+00   2.46211e+00 -2.50459e-03   1.42412e-01  -2.64917e-01
Si    1.22832e+00   6.13202e+00   1.22924e+00  3.85672e-02  -7.77271e-02   5.48659e-02
Si    3.67760e+00   8.58605e+00   1.22133e+00  1.24005e-01   1.31984e-01   2.85346e-02
Si    1.22227e+00   8.58857e+00   3.68668e+00  1.41418e-01   1.34349e-01  -1.40985e-01
Si    3.67585e+00   6.14023e+00   3.67549e+00  1.93422e-01  -7.18266e-02   2.05176e-01
Si    4.90367e+00   4.91221e+00   7.30458e-03  2.25950e-01   6.90006e-02  -2.66272e-01
Si    7.37271e+00   7.36610e+00   9.81653e+00 -2.83863e-01   1.42471e-01   1.80078e-01
Si    4.90501e+00   7.36417e+00   2.45052e+00  9.57073e-02   2.59754e-01   2.55680e-01
Si    7.36232e+00   4.91202e+00   2.45917e+00  6.02328e-02  -1.54435e-01  -1.54313e-01
Si    6.13442e+00   6.14381e+00   1.23396e+00  1.64698e-01  -8.02281e-02  -2.21738e-01
Si    8.59690e+00   8.59702e+00   1.22895e+00  1.52977e-02  -2.16620e-01   6.59308e-02
Si    6.14164e+00   8.59624e+00   3.68858e+00 -1.52243e-01  -2.51551e-01  -2.31597e-01
Si    8.59469e+00   6.12935e+00   3.68363e+00 -9.31631e-02   2.30497e-01  -1.13106e-02
Si    9.81779e+00   9.81510e+00   4.91380e+00 -1.01082e-01  -7.87964e-02  -6.69044e-02
Si    2.46147e+00   2.45657e+00   4.90729e+00 -2.14543e-01  -2.87316e-02   8.80303e-02
Si    1.65366e-03   2.45251e+00   7.36447e+00 -1.17989e-01  -5.68061e-02   1.64504e-02
Si    2.45409e+00   9.81073e+00   7.37228e+00  8.64801e-03   5.76575e-01  -2.64997e-01
Si    1.22092e+00   1.22478e+00   6.12992e+00  3.43984e-01  -1.98612e-03   2.10875e-01
Si    3.67979e+00   3.68834e+00   6.13533e+00  4.85667e-02  -1.53123e-01   5.32814e-02
Si    1.23131e+00   3.67831e+00   8.58879e+00 -2.00387e-01   1.28785e-01   9.90229e-02
Si    3.68625e+00   1.23379e+00   8.58866e+00 -9.50280e-02  -1.10540e-01   1.02464e-01
Si    4.91674e+00   3.45548e-03   4.90842e+00 -3.16352e-01  -1.70210e-01   1.84580e-02
Si    7.36110e+00   2.45050e+00   4.91517e+00  6.79658e-02  -4.21633e-02  -4.12099e-02
Si    4.91007e+00   2.45595e+00   7.35671e+00 -7.22280e-02  -7.01499e-02  -1.21773e-01
Si    7.35918e+00   4.54042e-03   7.36421e+00  2.37299e-01  -1.04066e-01  -1.06730e-01
Si    6.13353e+00   1.21913e+00   6.13326e+00  5.59708e-02   2.50427e-01   1.33851e-01
Si    8.58847e+00   3.67906e+00   6.13715e+00  1.09411e-01   9.41076e-03   1.73441e-02
Si    6.13044e+00   3.67446e+00   8.58662e+00  8.73832e-02   3.70029e-01   9.33926e-02
Si    8.59013e+00   1.22288e+00   8.59686e+00  8.00732e-02   7.74011e-02  -1.52003e-01
Si    9.81611e+00   4.90985e+00   4.90983e+00  1.72848e-01  -2.07402e-01   2.33744e-02
Si    2.44944e+00   7.36051e+00   4.90638e+00  1.46460e-01   1.60390e-01   1.96426e-01
Si    9.81399e+00   7.35649e+00   7.36652e+00  8.61490e-02   2.04098e-01   8.54869e-02
Si    2.45738e+00   4.90465e+00   7.36790e+00 -1.04907e-01   2.38009e-01  -1.02810e-01
Si    1.22349e+00   6.13815e+00   6.13820e+00  9.82699e-02  -1.82788e-01   5.36025e-02
Si    3.67816e+00   8.60002e+00   6.14183e+00  4.13921e-02  -1.77924e-01  -3.38348e-01
Si    1.23302e+00   8.59750e+00   8.58508e+00 -2.31053e-01  -4.65949e-01   2.22011e-01
Si    3.68433e+00   6.14322e+00   8.58502e+00 -1.10813e-01  -1.66341e-01   2.54365e-01
Si    4.90550e+00   4.90943e+00   4.91229e+00  1.03099e-01   2.12811e-01  -1.42114e-01
Si    7.36210e+00   7.35934e+00   4.91204e+00  1.74819e-01   5.22281e-02  -2.07603e-01
Si    4.90250e+00   7.36967e+00   7.36475e+00  2.86340e-01   3.69560e-02  -1.38284e-01
Si    7.36770e+00   4.91266e+00   7.36076e+00 -1.78889e-01  -1.51673e-01   1.51954e-01
Si    6.14215e+00   6.14169e+00   6.13641e+00 -3.28586e-01  -9.54661e-02   1.18264e-01
Si    8.58910e+00   8.58498e+00   6.13592e+00 -4.97694e-02   1.11625e-01   1.58173e-01
Si    6.13990e+00   8.59751e+00   8.58687e+00 -5.21036e-02  -2.08927e-01   1.23828e-01
Si    8.58539e+00   6.13665e+00   8.59673e+00  2.00644e-01  -1.67793e-01  -3.94609e-02
