64
Lattice="11.774408 0 0 0 11.774408 0 0 0 11.774408 " PBC="1 1 1" Properties=species:S:1:pos:R:3:force:R:3 Energy="-255.446860004"
Si    1.17690e+01   1.17726e+01   6.66359e-03  9.82841e-03  -1.74472e-02  -8.85418e-02
Si    2.95100e+00   2.93760e+00   3.06064e-03 -9.10604e-02   1.03423e-01  -9.76142e-02
Si    1.17737e+01   2.93807e+00   2.94803e+00  1.90221e-02   9.18209e-02   4.23695e-02
Si    2.94860e+00   9.83069e-03   2.94196e+00 -7.31414e-02  -7.86657e-02  -8.11417e-02
Si    1.46478e+00   1.47820e+00   1.46679e+00  8.33153e-02  -7.33226e-02   6.76973e-02
Si    4.41382e+00   4.42101e+00   1.47233e+00 -4.43794e-02  -3.97703e-02   2.74481e-02
Si    1.46935e+00   4.42530e+00   4.42473e+00 -3.89502e-02  -1.04200e-01  -8.37370e-02
Si    4.41467e+00   1.46282e+00   4.41264e+00 -1.17140e-02   2.53326e-01  -3.38550e-03
Si    5.88825e+00   1.17715e+01   1.17689e+01  3.44974e-03   4.49805e-02   2.90338e-02
Si    8.82061e+00   2.94261e+00   2.44605e-03  1.78264e-01  -1.67214e-02   2.33486e-02
Si    5.88693e+00   2.95364e+00   2.94015e+00 -4.23656e-03  -8.13964e-02   6.55029e-02
Si    8.82133e+00   1.97591e-03   2.94448e+00  7.84166e-02  -5.57263e-02   1.37740e-02
Si    7.35169e+00   1.47229e+00   1.46751e+00 -2.13451e-03   3.81097e-03   4.49358e-02
Si    1.03068e+01   4.41750e+00   1.47765e+00 -6.02766e-02  -8.93505e-02  -3.50778e-02
Si    7.36633e+00   4.42178e+00   4.41707e+00 -3.56000e-02  -5.73317e-02  -5.19869e-02
Si    1.03086e+01   1.46377e+00   4.42309e+00 -9.72288e-02   4.28047e-02  -1.17329e-01
Si    8.44042e-03   5.87736e+00   5.39648e-03 -9.68829e-02   1.39443e-01  -1.77646e-02
Si    2.93667e+00   8.83489e+00   1.17672e+01  9.54587e-02   1.54390e-02   1.06969e-01
Si    3.18946e-03   8.83203e+00   2.95161e+00 -2.27743e-02  -6.99165e-02  -7.27087e-02
Si    2.93543e+00   5.88726e+00   2.94571e+00  8.15350e-02  -1.79536e-02   4.86727e-03
Si    1.47686e+00   7.35847e+00   1.47624e+00 -7.06591e-02   3.45353e-02  -4.44467e-02
Si    4.42349e+00   1.03072e+01   1.47515e+00 -1.21290e-01  -3.15707e-02  -6.65086e-02
Si    1.47970e+00   1.03028e+01   4.40663e+00 -2.05206e-02   4.85887e-02   1.43162e-01
Si    4.41364e+00   7.34953e+00   4.41498e+00  3.02185e-02   7.61161e-02  -6.71953e-03
Si    5.88310e+00   5.88427e+00   4.91755e-03  6.63220e-02   1.42670e-02  -8.15076e-02
Si    8.82972e+00   8.83717e+00   1.17682e+01 -2.69427e-02  -7.38431e-02   1.03196e-01
Si    5.88349e+00   8.83594e+00   2.95195e+00  3.01397e-02  -1.10480e-01  -7.31790e-02
Si    8.83403e+00   5.88917e+00   2.94456e+00 -4.91744e-02   8.33790e-03  -5.94018e-02
Si    7.35484e+00   7.35951e+00   1.46688e+00  3.12790e-02   4.93065e-02   7.79607e-02
Si    1.03005e+01   1.02931e+01   1.47635e+00 -2.00040e-02   1.03023e-01   1.58314e-02
Si    7.35652e+00   1.02969e+01   4.42067e+00  4.37657e-02   4.38654e-02   1.76838e-02
Si    1.02986e+01   7.35413e+00   4.41339e+00  7.19731e-02   5.64013e-02   3.14509e-02
Si    1.17740e+01   5.12923e-03   5.88971e+00  1.18298e-01  -1.12278e-01  -4.77644e-02
Si    2.94078e+00   2.95048e+00   5.88926e+00  7.95562e-02  -6.56404e-02  -3.61547e-02
Si    1.17715e+01   2.94620e+00   8.82137e+00  8.60589e-02  -5.79564e-02   7.99723e-02
Si    2.94964e+00   8.01470e-03   8.83208e+00 -1.09814e-01  -9.14857e-02  -2.69932e-02
Si    1.47556e+00   1.47002e+00   7.35465e+00 -2.27534e-02   6.71839e-02   4.89876e-02
Si    4.42094e+00   4.41833e+00   7.35997e+00 -2.58638e-02   6.59003e-02  -4.27852e-02
Si    1.46785e+00   4.41989e+00   1.02980e+01  1.27019e-01  -9.74885e-02   1.46115e-02
Si    4.41762e+00   1.46816e+00   1.02974e+01  5.52998e-02   7.88795e-02   4.00121e-02
Si    5.88089e+00   6.20652e-03   5.87813e+00  8.74642e-02  -7.15117e-02   1.08701e-01
Si    8.83199e+00   2.93760e+00   5.87952e+00  6.47137e-02   9.93508e-02   6.03421e-02
Si    5.88949e+00   2.94974e+00   8.82641e+00  3.35978e-03  -6.88951e-02   4.21109e-02
Si    8.83481e+00   1.17709e+01   8.83352e+00 -4.68790e-02   1.39260e-01  -9.14509e-02
Si    7.35852e+00   1.48139e+00   7.34964e+00  9.74127e-03  -1.33965e-01   7.87470e-02
Si    1.03099e+01   4.41198e+00   7.35845e+00 -1.54803e-01   6.39065e-02  -4.14696e-02
Si    7.36408e+00   4.40635e+00   1.03074e+01 -8.43989e-02   1.57639e-01  -5.67169e-02
Si    1.03039e+01   1.47376e+00   1.02994e+01 -3.30625e-02   4.27910e-03   5.75536e-02
Si    1.17694e+01   5.89081e+00   5.88794e+00  2.54294e-02  -5.20133e-03   2.27907e-02
Si    2.95065e+00   8.82460e+00   5.88688e+00 -5.91835e-02   7.24225e-02   3.19372e-03
Si    1.17720e+01   8.83119e+00   8.83358e+00 -4.89988e-02  -5.36507e-02  -2.90940e-02
Si    2.94786e+00   5.89705e+00   8.83012e+00 -3.42947e-03  -6.16840e-02   2.87322e-02
Si    1.47002e+00   7.35819e+00   7.35925e+00  5.76983e-03   4.45788e-02  -4.61113e-03
Si    4.41471e+00   1.03110e+01   7.36111e+00 -2.11072e-04  -5.59129e-02  -5.34756e-02
Si    1.46469e+00   1.03001e+01   1.02946e+01  5.15137e-02   1.12053e-01   6.97192e-02
Si    4.42162e+00   7.36642e+00   1.03069e+01 -1.01950e-01  -7.69622e-02   3.71425e-03
Si    5.89675e+00   5.89265e+00   5.88345e+00 -4.58666e-02  -5.08663e-02   6.13071e-02
Si    8.83880e+00   8.82220e+00   5.89232e+00 -2.49195e-02   1.30942e-01  -3.32250e-02
Si    5.87614e+00   8.82994e+00   8.83268e+00  2.10283e-01   9.26100e-02  -2.38181e-02
Si    8.83186e+00   5.89400e+00   8.83304e+00  9.84941e-03  -1.48765e-01  -4.98441e-03
Si    7.36685e+00   7.36063e+00   7.35851e+00 -1.02823e-01   1.95345e-02   5.56265e-02
Si    1.03083e+01   1.03114e+01   7.36097e+00 -3.43119e-02  -1.14338e-01  -9.22761e-03
Si    7.36710e+00   1.03101e+01   1.03044e+01 -1.29944e-01  -1.02298e-01  -8.09932e-02
Si    1.02936e+01   7.35659e+00   1.03109e+01  1.58840e-01   8.56867e-03  -2.75387e-02
