8
Lattice="5.354966 0 0 0 5.354966 0 0 0 5.354966 " PBC="1 1 1" Properties=species:S:1:pos:R:3:force:R:3 Energy="-34.6010167005"
Si    0.00000e+00   0.00000e+00   0.00000e+00 -6.77236e-15  -3.01010e-16  -3.01010e-16
Si    2.67748e+00   2.67748e+00   0.00000e+00 -1.11022e-16  -1.94289e-16  -4.44089e-16
Si    0.00000e+00   2.67748e+00   2.67748e+00 -3.49720e-15   3.08517e-15  -3.64079e-15
Si    2.67748e+00   0.00000e+00   2.67748e+00 -1.66533e-16  -2.77556e-16  -4.16334e-16
Si    1.33874e+00   1.33874e+00   1.33874e+00 -1.11022e-16  -1.34476e-16  -3.06232e-17
Si    4.01622e+00   4.01622e+00   1.33874e+00  6.99154e-15   5.21621e-16   1.63666e-16
Si    1.33874e+00   4.01622e+00   4.01622e+00 -1.11022e-16   6.38378e-16   6.38378e-16
Si    4.01622e+00   1.33874e+00   4.01622e+00  3.82597e-15  -3.41394e-15   3.90923e-15
