8
Lattice="5.583068 0 0 0 5.583068 0 0 0 5.583068 " PBC="1 1 1" Properties=species:S:1:pos:R:3:force:R:3 Energy="-34.3533104837"
Si    0.00000e+00   0.00000e+00   0.00000e+00 -2.22045e-16  -2.80876e-16  -2.80876e-16
Si    2.79153e+00   2.79153e+00   0.00000e+00 -4.10783e-15  -5.55112e-16  -1.66533e-16
Si    0.00000e+00   2.79153e+00   2.79153e+00 -2.10942e-15  -2.33178e-15  -2.25998e-15
Si    2.79153e+00   0.00000e+00   2.79153e+00 -4.16334e-15  -1.11022e-16  -4.99600e-16
Si    1.39577e+00   1.39577e+00   1.39577e+00  0.00000e+00  -1.00974e-28  -1.11022e-16
Si    4.18730e+00   4.18730e+00   1.39577e+00  4.31358e-15   6.92386e-16   1.53564e-16
Si    1.39577e+00   4.18730e+00   4.18730e+00  1.88738e-15   2.44249e-15   2.49800e-15
Si    4.18730e+00   1.39577e+00   4.18730e+00  4.34948e-15   1.33954e-16   6.53165e-16
