64
Lattice="10.036488 0 0 0 10.036488 0 0 0 10.036488 " PBC="1 1 1" Properties=species:S:1:pos:R:3:force:R:3 Energy="-253.22366583"
Si    1.00348e+01   1.20463e-03   1.00353e+01  1.63987e-02   9.93658e-03   4.25084e-02
Si    2.50929e+00   2.50669e+00   2.10137e-03  2.64614e-02   1.04150e-01  -8.75242e-02
Si    2.01088e-03   2.50678e+00   2.51142e+00 -9.36305e-03   3.14747e-02  -4.82460e-02
Si    2.50730e+00   1.00354e+01   2.50965e+00 -2.07338e-02   3.04216e-03  -4.00016e-02
Si    1.25679e+00   1.25633e+00   1.25206e+00 -7.30442e-02  -9.05255e-02   6.71855e-02
Si    3.76379e+00   3.76394e+00   1.25449e+00  3.29544e-02  -1.52942e-02  -2.81813e-02
Si    1.25591e+00   3.76198e+00   3.76501e+00  2.13353e-03   3.73297e-02  -2.10385e-02
Si    3.76128e+00   1.25273e+00   3.76176e+00  5.29345e-02   2.35677e-02   2.67497e-02
Si    5.01729e+00   8.60391e-04   1.00363e+01  3.40456e-03   2.89525e-02  -4.14138e-04
Si    7.52895e+00   2.50807e+00   1.16988e-03 -1.33754e-03   4.09647e-02  -3.01687e-02
Si    5.01926e+00   2.50826e+00   2.50829e+00 -3.74623e-02   1.81807e-02   2.25557e-02
Si    7.52977e+00   6.25183e-04   2.51138e+00 -5.63295e-02  -2.49504e-02  -6.45135e-02
Si    6.27415e+00   1.25619e+00   1.25409e+00  6.44214e-03  -7.60884e-02   2.28965e-02
Si    8.78168e+00   3.76318e+00   1.25705e+00  4.79759e-02  -2.06102e-02  -1.03213e-02
Si    6.27119e+00   3.76600e+00   3.76328e+00  6.03307e-02  -4.30368e-02   1.47970e-02
Si    8.78155e+00   1.25438e+00   3.76305e+00  1.42783e-02   3.24623e-02   5.28445e-02
Si    1.00363e+01   5.01591e+00   1.00344e+01 -2.91455e-02   6.12681e-02   5.75589e-02
Si    2.51029e+00   7.52805e+00   1.00341e+01 -1.38415e-03  -2.46776e-03   1.01730e-02
Si    1.00355e+01   7.52597e+00   2.50689e+00  5.70837e-02   7.32182e-02   2.22908e-02
Si    2.50924e+00   5.01782e+00   2.50685e+00 -1.90047e-02   2.30036e-02   5.04570e-02
Si    1.25492e+00   6.27433e+00   1.25262e+00 -5.60082e-03  -4.89554e-02  -3.46159e-02
Si    3.76256e+00   8.78264e+00   1.25452e+00 -3.49111e-03   1.50054e-04  -5.35961e-03
Si    1.25459e+00   8.78173e+00   3.76566e+00 -1.91371e-02  -5.53024e-02  -5.64149e-02
Si    3.76421e+00   6.27332e+00   3.76340e+00 -4.27719e-02  -3.81184e-02   7.45910e-03
Si    5.01814e+00   5.02019e+00   1.00350e+01  2.59127e-03  -1.29774e-03   6.29426e-02
Si    7.52960e+00   7.52523e+00   4.77498e-04 -6.37476e-02   6.47128e-02  -4.95162e-02
Si    5.01589e+00   7.52820e+00   2.50981e+00  7.04831e-02   3.19084e-02   1.01720e-03
Si    7.52918e+00   5.02046e+00   2.50885e+00 -4.71593e-02  -1.80223e-02   1.03090e-02
Si    6.27366e+00   6.27493e+00   1.25516e+00 -3.65114e-02  -2.68943e-02   2.37414e-03
Si    8.78104e+00   8.78102e+00   1.25351e+00  1.67355e-02   3.27516e-02   1.93680e-02
Si    6.27510e+00   8.78146e+00   3.76592e+00 -8.55622e-02   3.52925e-02  -4.79025e-02
Si    8.78372e+00   6.27375e+00   3.76119e+00 -3.31192e-02  -8.27667e-03   7.10268e-02
Si    2.00782e-03   2.10698e-03   5.01576e+00 -9.22146e-02  -7.06362e-02   5.85558e-02
Si    2.50984e+00   2.50855e+00   5.01872e+00 -4.55410e-03  -2.84802e-02   1.36623e-02
Si    5.56057e-04   2.50962e+00   7.52642e+00  1.56726e-02   1.23763e-02  -8.61251e-03
Si    2.50696e+00   1.50916e-03   7.52943e+00  2.47239e-03  -4.47840e-02  -3.02915e-02
Si    1.25303e+00   1.25311e+00   6.27219e+00  4.12344e-02   5.04161e-02   9.45326e-03
Si    3.76320e+00   3.76562e+00   6.27131e+00 -6.74778e-03  -4.44922e-02   2.50933e-02
Si    1.25415e+00   3.76443e+00   8.78199e+00  7.05634e-02  -5.65326e-02  -1.17240e-02
Si    3.76285e+00   1.25596e+00   8.78010e+00  7.90488e-03  -1.85849e-02   4.39192e-02
Si    5.01670e+00   1.00360e+01   5.01968e+00  8.08744e-03  -2.41933e-03  -6.17811e-02
Si    7.52613e+00   2.50716e+00   5.02041e+00 -1.98564e-02   3.82351e-02  -9.78746e-02
Si    5.01637e+00   2.50965e+00   7.52631e+00  3.53466e-02   1.26301e-02  -2.54755e-02
Si    7.52800e+00   8.00289e-04   7.52520e+00  1.44595e-02   1.36062e-02   3.19528e-02
Si    6.27208e+00   1.25373e+00   6.27119e+00 -3.56042e-02   5.44649e-03   5.54867e-02
Si    8.77946e+00   3.76123e+00   6.27329e+00  3.19440e-02   3.57312e-02   4.00671e-03
Si    6.27072e+00   3.76276e+00   8.78428e+00  3.09517e-02  -2.52506e-02  -1.85810e-02
Si    8.78380e+00   1.25663e+00   8.78027e+00 -4.64226e-02  -2.65922e-02  -9.37401e-03
Si    1.00356e+01   5.01695e+00   5.01820e+00 -1.36133e-03   8.43011e-03   1.12639e-02
Si    2.50934e+00   7.52689e+00   5.01946e+00  2.06975e-02   1.70614e-02  -2.73506e-02
Si    7.21287e-04   7.52817e+00   7.52561e+00  1.12170e-02  -1.72269e-02   6.42490e-02
Si    2.51036e+00   5.01895e+00   7.52635e+00 -4.14907e-02   2.69741e-02   7.22706e-03
Si    1.25394e+00   6.27526e+00   6.27203e+00  5.51319e-03  -7.81842e-02   3.24641e-03
Si    3.76290e+00   8.78250e+00   6.27340e+00 -1.78485e-02  -1.52857e-03   5.43309e-02
Si    1.25212e+00   8.78230e+00   8.78332e+00  1.91282e-02   2.52916e-04  -2.57648e-02
Si    3.76594e+00   6.27382e+00   8.78000e+00 -2.45284e-02   5.83059e-03  -5.45751e-03
Si    5.01697e+00   5.01784e+00   5.01891e+00  3.13710e-02   6.17379e-02  -1.28377e-02
Si    7.52534e+00   7.52682e+00   5.01735e+00  1.37215e-01   7.49834e-03   2.30939e-03
Si    5.02061e+00   7.52972e+00   7.52859e+00 -3.25314e-03  -1.55297e-02  -6.38780e-02
Si    7.52745e+00   5.01656e+00   7.52962e+00 -3.71219e-02   3.13985e-02  -3.01510e-02
Si    6.27492e+00   6.27472e+00   6.27055e+00 -5.23472e-02  -7.35202e-02   8.24509e-02
Si    8.78331e+00   8.77995e+00   6.27484e+00 -1.58731e-02   6.10726e-02  -1.24490e-01
Si    6.27325e+00   8.78438e+00   8.78157e+00  5.74669e-02  -2.48840e-02   5.44845e-02
Si    8.78258e+00   6.27419e+00   8.78072e+00  3.26762e-02  -4.25786e-02  -8.34406e-03
