64
Lattice="11.883028 0 0 0 11.883028 0 0 0 11.883028 " PBC="1 1 1" Properties=species:S:1:pos:R:3:force:R:3 Energy="-250.397619789"
Si    2.00196e-03   2.79391e-03   1.18827e+01 -1.78176e-02  -2.12263e-02  -1.14890e-02
Si    2.96948e+00   2.97237e+00   1.18818e+01  1.71365e-03  -2.12561e-02  -1.69560e-02
Si    2.83015e-03   2.97331e+00   2.96900e+00 -4.45804e-02  -2.64176e-02   9.62501e-03
Si    2.96984e+00   1.18813e+01   2.96956e+00 -2.17045e-04   3.82507e-02   4.30091e-03
Si    1.48445e+00   1.48781e+00   1.48321e+00  2.53552e-02  -1.35470e-02   1.95089e-02
Si    4.45432e+00   4.45412e+00   1.48307e+00  1.68382e-02   3.54476e-02   8.26059e-03
Si    1.48487e+00   4.45496e+00   4.45398e+00  3.00271e-02   2.27942e-02   2.89301e-02
Si    4.45771e+00   1.48599e+00   4.45683e+00 -1.91334e-02  -3.17116e-03  -1.53136e-02
Si    5.94250e+00   1.43103e-03   1.18825e+01 -1.50952e-02  -1.69435e-02   1.32203e-03
Si    8.91034e+00   2.96881e+00   1.18820e+01  5.66646e-03   3.20602e-02   3.21388e-02
Si    5.94233e+00   2.97338e+00   2.96938e+00 -9.07868e-03  -2.95870e-02   7.35556e-03
Si    8.90981e+00   2.94910e-03   2.96783e+00  3.83136e-02  -5.52817e-02   3.98186e-02
Si    7.42949e+00   1.48456e+00   1.48729e+00 -4.83421e-02   2.76956e-02  -3.51002e-02
Si    1.03954e+01   4.45564e+00   1.48755e+00  4.19132e-02  -2.22488e-03  -6.12421e-02
Si    7.42503e+00   4.45711e+00   4.45612e+00  3.16531e-02  -6.84855e-03  -1.79910e-02
Si    1.03957e+01   1.48786e+00   4.45473e+00  1.90378e-02  -5.14896e-03  -8.53589e-03
Si    1.53043e-03   5.94378e+00   1.18816e+01 -3.28330e-02  -4.44847e-02   2.31991e-02
Si    2.97287e+00   8.90983e+00   1.18827e+01 -1.94218e-02   6.38369e-03  -8.51722e-03
Si    2.44957e-03   8.91524e+00   2.97343e+00 -3.27098e-02  -4.44272e-02  -2.74902e-02
Si    2.97091e+00   5.94229e+00   2.96938e+00 -4.95647e-03  -1.68314e-02  -5.33792e-03
Si    1.48433e+00   7.42691e+00   1.48297e+00  1.75393e-02   1.73664e-02   3.25891e-02
Si    4.45346e+00   1.03968e+01   1.48357e+00  3.24289e-02   1.31459e-02   6.13076e-03
Si    1.48294e+00   1.04001e+01   4.45607e+00  1.90196e-02   8.81825e-03   1.33401e-02
Si    4.45798e+00   7.42452e+00   4.45581e+00 -2.40472e-02   3.07250e-02  -6.55014e-04
Si    5.94080e+00   5.94226e+00   1.18814e+01 -3.53858e-03  -1.45085e-02   2.48595e-02
Si    8.90997e+00   8.91131e+00   2.25392e-04  3.91902e-02  -5.15452e-03   7.77147e-03
Si    5.93982e+00   8.91434e+00   2.97136e+00  1.58180e-02  -3.49775e-02  -1.94977e-02
Si    8.91468e+00   5.93871e+00   2.96890e+00 -3.35165e-02   2.29514e-02   3.78405e-02
Si    7.42840e+00   7.42474e+00   1.48541e+00 -2.86089e-02   1.82850e-02   1.09321e-02
Si    1.04001e+01   1.03973e+01   1.48386e+00 -2.58938e-02   1.84212e-02   1.23149e-02
Si    7.42535e+00   1.03966e+01   4.45737e+00  1.80189e-02   2.92353e-02  -1.66268e-02
Si    1.03978e+01   7.42406e+00   4.45762e+00  1.13559e-02   3.44599e-02  -3.17449e-02
Si    1.18812e+01   2.45313e-03   5.94261e+00 -4.69524e-03  -8.89450e-03  -1.97162e-02
Si    2.97004e+00   2.96914e+00   5.94441e+00  6.64611e-03   2.78362e-02  -3.30842e-02
Si    7.66447e-04   2.96965e+00   8.91119e+00 -1.85213e-02   1.84358e-02   1.96753e-02
Si    2.97215e+00   2.63178e-03   8.91341e+00 -3.93951e-02  -3.43825e-02  -3.97335e-02
Si    1.48256e+00   1.48758e+00   7.42552e+00  3.01416e-02  -3.29224e-02   2.73266e-02
Si    4.45563e+00   4.45616e+00   7.42985e+00  1.03526e-02   2.38280e-03  -2.32329e-02
Si    1.48496e+00   4.45669e+00   1.03966e+01  8.23083e-03   9.56938e-03  -4.03855e-03
Si    4.45348e+00   1.48458e+00   1.03947e+01  2.90356e-02   1.97591e-02   4.85577e-02
Si    5.94173e+00   1.16972e-03   5.94265e+00 -3.54633e-03  -1.24416e-02   7.21994e-03
Si    8.91106e+00   2.97149e+00   5.94020e+00  5.16292e-03   1.24431e-02   1.32139e-02
Si    5.94019e+00   2.96885e+00   8.91322e+00  1.54324e-03   2.62996e-02   3.99381e-03
Si    8.91328e+00   1.19835e-03   8.91120e+00 -6.99732e-03  -1.65033e-02   1.73646e-02
Si    7.42655e+00   1.48834e+00   7.42828e+00  5.27177e-03  -2.55990e-02  -1.52687e-02
Si    1.04002e+01   4.45541e+00   7.42602e+00 -2.10332e-02   2.13296e-02  -1.60272e-03
Si    7.42447e+00   4.45575e+00   1.03997e+01  1.34265e-02  -4.47832e-03  -2.63438e-02
Si    1.03954e+01   1.48788e+00   1.03994e+01  3.08273e-02  -2.50069e-02  -2.77530e-02
Si    2.80285e-03   5.94439e+00   5.94046e+00 -2.22318e-02  -5.45481e-02   4.66466e-03
Si    2.96924e+00   8.91427e+00   5.93886e+00 -3.59797e-03  -4.14434e-02   1.65649e-02
Si    1.18822e+01   8.91433e+00   8.91241e+00  1.85131e-02  -3.81349e-02   2.35050e-02
Si    2.97332e+00   5.94429e+00   8.91441e+00 -3.79011e-02  -3.11382e-02  -2.14338e-02
Si    1.48324e+00   7.42508e+00   7.42754e+00  3.91688e-02   4.77828e-02  -2.56107e-04
Si    4.45434e+00   1.03955e+01   7.42631e+00  1.15618e-02   3.86415e-02   7.12574e-04
Si    1.48806e+00   1.03969e+01   1.03989e+01 -1.13515e-02   1.77284e-02  -9.36731e-03
Si    4.45663e+00   7.42579e+00   1.03966e+01  2.06080e-02   2.95914e-02   3.82061e-03
Si    5.94295e+00   5.94038e+00   5.94010e+00 -2.53517e-02  -1.48791e-03   2.70465e-02
Si    8.91290e+00   8.91134e+00   5.94064e+00  2.16813e-03   1.28473e-03   1.12802e-02
Si    5.94214e+00   8.91306e+00   8.91029e+00 -5.57950e-03  -2.17430e-02   1.17618e-02
Si    8.91176e+00   5.94187e+00   8.91350e+00  1.93409e-03  -2.11412e-02  -1.48912e-02
Si    7.42663e+00   7.42616e+00   7.42474e+00  9.14019e-03   3.84581e-03   1.52644e-02
Si    1.04003e+01   1.03958e+01   7.42780e+00 -3.65979e-02   2.95147e-02  -1.78346e-02
Si    7.42784e+00   1.03952e+01   1.03985e+01 -8.45364e-03   3.64973e-02  -2.22618e-02
Si    1.03973e+01   7.42534e+00   1.03992e+01 -2.57733e-03   3.29197e-02  -1.88945e-02
