8
Lattice="5.039968 0 0 0 5.039968 0 0 0 5.039968 " PBC="1 1 1" Properties=species:S:1:pos:R:3:force:R:3 Energy="-31.9757765136"
Si    0.00000e+00   0.00000e+00   0.00000e+00  8.88178e-16   6.93889e-18  -9.10730e-18
Si    2.51998e+00   2.51998e+00   0.00000e+00 -1.17961e-16   2.87530e-16   2.28985e-16
Si    0.00000e+00   2.51998e+00   2.51998e+00  1.77636e-15   8.32667e-17   3.58652e-16
Si    2.51998e+00   0.00000e+00   2.51998e+00  4.57967e-16  -4.33681e-19   6.66131e-16
Si    1.25999e+00   1.25999e+00   1.25999e+00  5.82867e-16   6.05418e-16   8.60426e-16
Si    3.77998e+00   3.77998e+00   1.25999e+00 -8.60423e-16  -1.33183e-15   5.12557e-17
Si    1.25999e+00   3.77998e+00   3.77998e+00  5.48173e-16   3.46945e-18  -6.66567e-16
Si    3.77998e+00   1.25999e+00   3.77998e+00 -1.45717e-15   7.32053e-16  -8.80804e-16
