64
Lattice="11.904752 0 0 0 11.904752 0 0 0 11.904752 " PBC="1 1 1" Properties=species:S:1:pos:R:3:force:R:3 Energy="-249.00179859"
Si    1.18802e+01   1.35128e-02   2.30980e-02  6.35269e-01  -1.53893e-01  -2.79049e-01
Si    2.99474e+00   2.94517e+00   1.18876e+01 -9.51232e-02   1.19423e-01   5.90986e-02
Si    1.01659e-02   2.97953e+00   2.96116e+00 -1.19708e-01   1.79482e-02   2.68745e-01
Si    2.99352e+00   1.18833e+01   2.99029e+00 -3.29529e-01   2.70005e-01  -1.95451e-02
Si    1.49081e+00   1.50903e+00   1.50384e+00  1.35607e-01  -3.83298e-01  -1.18772e-01
Si    4.45677e+00   4.45732e+00   1.46024e+00  1.03502e-01  -1.00134e-02   1.15994e-01
Si    1.51599e+00   4.43757e+00   4.47173e+00 -1.40519e-01   3.40983e-01  -3.08230e-01
Si    4.43530e+00   1.49310e+00   4.48219e+00  1.85191e-01  -1.81407e-01  -6.28707e-02
Si    5.93855e+00   1.18828e+01   1.18807e+01  1.71398e-01   2.05561e-01   1.64057e-01
Si    8.96022e+00   2.98160e+00   1.19009e+01 -4.64587e-01  -5.65278e-02   8.76299e-02
Si    5.92444e+00   2.95096e+00   2.98281e+00  5.82318e-02   2.30959e-01  -2.79929e-02
Si    8.90554e+00   1.18767e+01   2.98934e+00  4.86055e-01   4.33364e-01  -2.80002e-01
Si    7.41789e+00   1.46271e+00   1.51797e+00  1.76863e-01   1.28779e-01  -4.29381e-01
Si    1.04423e+01   4.47241e+00   1.46631e+00 -2.02049e-01  -9.14825e-02   2.94350e-01
Si    7.43760e+00   4.45921e+00   4.45251e+00 -3.05248e-02  -7.64779e-02  -2.21249e-01
Si    1.04034e+01   1.48931e+00   4.47090e+00  9.23651e-02  -5.56221e-02  -1.28067e-01
Si    9.33000e-03   5.95090e+00   2.97439e-02  9.89534e-02   2.36297e-02  -3.13823e-01
Si    2.95679e+00   8.92591e+00   1.99813e-03  2.37921e-01   1.35398e-01   6.37313e-02
Si    1.18760e+01   8.91995e+00   3.00527e+00  3.05432e-01   2.76588e-01  -3.76676e-01
Si    2.98096e+00   5.97796e+00   2.95047e+00 -8.12291e-02  -3.34225e-01   1.63355e-01
Si    1.47061e+00   7.45683e+00   1.50720e+00  1.40078e-02  -9.31127e-03  -7.02313e-02
Si    4.47090e+00   1.04388e+01   1.49484e+00 -7.64309e-02  -3.90522e-01  -8.70546e-02
Si    1.48679e+00   1.03967e+01   4.47409e+00 -6.55229e-02   1.59751e-01   9.55886e-02
Si    4.45136e+00   7.45252e+00   4.44490e+00  2.37695e-01  -1.43497e-01   1.80841e-01
Si    5.96247e+00   5.93192e+00   1.18708e+01 -2.85396e-01   4.02391e-01   2.36084e-01
Si    8.90684e+00   8.95276e+00   1.18837e+01  2.56720e-01  -2.71317e-01   1.11225e-01
Si    5.95610e+00   8.94676e+00   3.00474e+00  1.27570e-01  -6.64954e-02  -3.87427e-01
Si    8.92216e+00   5.94730e+00   2.95753e+00  1.64253e-01  -3.04081e-02   2.51935e-02
Si    7.44261e+00   7.42363e+00   1.47655e+00 -1.70398e-01   2.66676e-01   5.31914e-04
Si    1.04322e+01   1.04298e+01   1.47779e+00 -3.97995e-01  -2.34968e-01   2.34323e-01
Si    7.47385e+00   1.04497e+01   4.44719e+00 -4.46742e-01  -4.82209e-01   5.01684e-01
Si    1.04195e+01   7.45139e+00   4.43630e+00 -1.49905e-01  -3.86587e-01   3.87603e-01
Si    1.18939e+01   5.84389e-05   5.98143e+00  1.44338e-01   7.12976e-02  -3.48253e-01
Si    2.97947e+00   2.98524e+00   5.95454e+00 -9.89401e-02  -1.79699e-01   1.24937e-01
Si    1.18917e+01   2.97219e+00   8.90991e+00  1.47399e-01   9.00647e-02   3.96145e-01
Si    2.99698e+00   1.40245e-02   8.94532e+00 -3.54219e-01  -2.03127e-02  -2.81917e-01
Si    1.47407e+00   1.51274e+00   7.44624e+00  2.45430e-01  -2.56271e-01  -1.85172e-03
Si    4.45654e+00   4.45136e+00   7.43080e+00  2.01329e-01   1.67292e-01   3.03120e-02
Si    1.49432e+00   4.44628e+00   1.04331e+01 -1.06031e-01   2.07539e-02  -1.05413e-01
Si    4.48137e+00   1.47386e+00   1.03887e+01  5.64924e-02   1.61539e-01   2.06620e-01
Si    5.93036e+00   1.18918e+01   5.95180e+00  7.42238e-02   9.25706e-02   8.03237e-02
Si    8.91720e+00   2.99373e+00   5.93207e+00  8.11488e-02  -8.81941e-02   3.14815e-01
Si    5.96172e+00   2.98334e+00   8.91912e+00 -1.31324e-01   6.67071e-02   4.56292e-02
Si    8.91277e+00   3.79010e-02   8.94392e+00  1.70847e-01  -2.94069e-01  -2.54761e-01
Si    7.41671e+00   1.50061e+00   7.43711e+00  1.66919e-01  -3.47625e-02  -1.46000e-01
Si    1.04285e+01   4.47162e+00   7.45586e+00 -2.02722e-01  -3.52686e-02  -2.80906e-01
Si    7.42989e+00   4.49807e+00   1.04065e+01  4.27271e-01  -4.26408e-01  -9.74240e-02
Si    1.04379e+01   1.48202e+00   1.04336e+01 -2.05981e-01   1.75982e-01  -1.94009e-01
Si    1.07435e-02   5.92771e+00   5.94155e+00  8.95379e-02   3.66600e-01   9.17075e-02
Si    2.98984e+00   8.92289e+00   5.95280e+00 -1.02462e-01   9.68299e-02   5.08024e-02
Si    4.15212e-03   8.90732e+00   8.89897e+00 -1.52597e-01   1.94421e-01   3.10857e-01
Si    2.98256e+00   5.93294e+00   8.94286e+00 -1.60177e-02   2.06019e-01  -9.45047e-02
Si    1.51287e+00   7.46720e+00   7.45483e+00 -1.04913e-01  -5.71687e-01  -2.72123e-01
Si    4.43590e+00   1.04109e+01   7.47265e+00  2.42856e-01   6.79485e-02  -3.33432e-01
Si    1.51167e+00   1.04033e+01   1.03863e+01 -4.29606e-01   2.11807e-01   3.23506e-01
Si    4.46521e+00   7.47216e+00   1.03987e+01 -5.29292e-02  -3.90178e-01   2.10058e-01
Si    5.96760e+00   5.93128e+00   5.92031e+00 -2.91477e-01   1.93550e-01   1.81815e-01
Si    8.94949e+00   8.93280e+00   5.95194e+00 -2.09324e-01  -4.36232e-02  -2.02894e-01
Si    5.94031e+00   8.93103e+00   8.91869e+00  1.93594e-01  -6.61084e-02  -1.18895e-01
Si    8.94996e+00   5.97549e+00   8.93069e+00 -2.32967e-01  -2.87977e-01  -8.81600e-02
Si    7.44864e+00   7.42077e+00   7.42587e+00 -5.05949e-02   2.26315e-01   1.26312e-02
Si    1.04121e+01   1.04190e+01   7.42001e+00 -7.30707e-02   7.28642e-02   4.45899e-01
Si    7.42906e+00   1.04186e+01   1.03897e+01 -2.19500e-02   6.17783e-02   6.55000e-02
Si    1.04141e+01   7.40542e+00   1.04238e+01  1.64363e-01   4.97024e-01   4.93218e-02
