64
Lattice="10.3189 0 0 0 10.3189 0 0 0 10.3189 " PBC="1 1 1" Properties=species:S:1:pos:R:3:force:R:3 Energy="-266.901914599"
Si    1.03164e+01   1.03064e+01   1.15589e-03  5.98894e-02   3.72293e-01   2.93642e-01
Si    2.58346e+00   2.60511e+00   1.03019e+01 -5.61204e-01  -9.49691e-02  -1.69855e-01
Si    1.03039e+01   2.56357e+00   2.56676e+00  4.47814e-01   6.61862e-01  -7.26090e-02
Si    2.57520e+00   1.03162e+01   2.59727e+00  4.23810e-01   3.74651e-01  -5.46781e-01
Si    1.30369e+00   1.31196e+00   1.27413e+00 -8.28764e-02  -4.99828e-01   8.75775e-02
Si    3.84502e+00   3.84734e+00   1.28965e+00  6.17819e-01   5.97111e-01   1.86664e-01
Si    1.27858e+00   3.89506e+00   3.85535e+00  2.97731e-01  -6.17671e-01   6.06112e-02
Si    3.86360e+00   1.30404e+00   3.89306e+00  4.83019e-01  -2.86267e-01  -8.90489e-01
Si    5.17215e+00   7.83083e-03   1.02956e+01 -5.96804e-01   2.60102e-01   4.76013e-01
Si    7.73469e+00   2.55568e+00   6.21340e-03 -9.94207e-02   2.23099e-01   3.95502e-02
Si    5.18308e+00   2.59283e+00   2.58046e+00 -1.05755e+00  -5.31108e-01  -4.13885e-02
Si    7.73049e+00   2.91372e-03   2.59904e+00  3.40792e-02  -2.33777e-01   1.53624e-01
Si    6.43286e+00   1.27701e+00   1.30958e+00  3.48913e-01   5.29508e-02  -3.11306e-01
Si    9.02880e+00   3.87363e+00   1.27099e+00  2.55066e-01  -2.38577e-01  -1.45433e-01
Si    6.41808e+00   3.85340e+00   3.87002e+00  1.28340e+00   2.74314e-01  -1.73120e-01
Si    9.05551e+00   1.29159e+00   3.86730e+00 -9.55175e-01   9.89378e-02   3.73538e-01
Si    1.47426e-02   5.19192e+00   2.43421e-03 -5.56149e-01  -7.15779e-01  -4.75353e-01
Si    2.59935e+00   7.75231e+00   1.32146e-02 -3.38731e-01  -1.94472e-01  -5.48724e-01
Si    1.54289e-02   7.73227e+00   2.58167e+00 -3.30597e-01  -2.62689e-01   1.32375e-02
Si    2.59179e+00   5.18107e+00   2.58080e+00 -2.75659e-01  -4.39666e-01  -2.74985e-01
Si    1.28298e+00   6.43294e+00   1.27566e+00  6.34926e-01   7.41551e-01   3.87154e-01
Si    3.89772e+00   9.02945e+00   1.29488e+00 -3.29569e-01   5.09850e-01  -1.14791e-01
Si    1.30084e+00   9.02365e+00   3.85145e+00 -7.41438e-01   4.71546e-01   5.56698e-01
Si    3.88983e+00   6.44067e+00   3.85205e+00 -9.45835e-02   4.53807e-01   2.72992e-01
Si    5.15294e+00   5.15906e+00   2.64854e-03  9.03971e-02  -1.12916e-01   9.77546e-02
Si    7.76034e+00   7.73003e+00   1.98330e-02 -5.63019e-01   6.80430e-01  -3.61639e-01
Si    5.16702e+00   7.73710e+00   2.55556e+00  2.38666e-02  -4.22650e-02   5.11438e-01
Si    7.75321e+00   5.13938e+00   2.56117e+00 -5.28345e-01   1.53157e-01   5.29156e-01
Si    6.45734e+00   6.46530e+00   1.29213e+00  5.27124e-02  -6.38042e-01  -1.41498e-01
Si    9.02987e+00   9.02970e+00   1.30975e+00  5.62230e-02   2.30614e-02   3.73560e-02
Si    6.43087e+00   9.00663e+00   3.88576e+00 -7.03175e-02   5.94487e-01  -1.96622e-01
Si    9.02862e+00   6.43021e+00   3.88326e+00  2.71651e-01  -6.42252e-03  -5.29114e-01
Si    1.02859e+01   6.02078e-04   5.18044e+00  8.73910e-01  -4.11300e-01  -6.14468e-01
Si    2.59284e+00   2.55967e+00   5.14147e+00 -1.38546e+00   2.59183e-01   3.93839e-01
Si    2.67506e-02   2.60182e+00   7.76805e+00 -6.69353e-01  -8.04371e-01  -5.98932e-01
Si    2.57466e+00   8.12806e-03   7.74805e+00  4.09056e-01  -2.12510e-01  -2.48955e-01
Si    1.26833e+00   1.25949e+00   6.47051e+00  3.57772e-01   7.81088e-01  -3.86080e-01
Si    3.84524e+00   3.84864e+00   6.42465e+00  5.41678e-01   6.04446e-01   3.49802e-01
Si    1.27163e+00   3.88526e+00   9.00133e+00  7.06528e-01   5.13226e-01   9.11446e-01
Si    3.85255e+00   1.31000e+00   9.03010e+00  3.70751e-01  -2.04668e-01  -9.13622e-02
Si    5.13827e+00   1.59225e-02   5.17617e+00  7.23900e-01  -3.17732e-03  -2.00002e-01
Si    7.72644e+00   2.58306e+00   5.18082e+00  2.43743e-01  -2.37934e-01  -5.25774e-01
Si    5.15956e+00   2.58025e+00   7.73447e+00 -2.26280e-01   3.15228e-01   1.66560e-01
Si    7.73838e+00   1.03096e+01   7.72382e+00  3.62934e-01  -8.30672e-03   3.64723e-01
Si    6.44979e+00   1.29781e+00   6.47457e+00 -1.17178e-01  -2.69141e-01  -4.17721e-01
Si    9.03468e+00   3.84840e+00   6.46235e+00  1.65961e-01   4.82588e-01  -1.05218e-02
Si    6.46140e+00   3.87246e+00   9.02823e+00 -3.18510e-01  -2.53688e-01   2.56819e-01
Si    9.04061e+00   1.29017e+00   9.03830e+00 -1.54568e-01  -1.53766e-01  -3.09400e-01
Si    1.82827e-02   5.16771e+00   5.17413e+00 -6.66374e-01  -5.11453e-01  -3.82071e-02
Si    2.57395e+00   7.75775e+00   5.13497e+00  3.68328e-01  -6.64483e-01   5.67104e-01
Si    2.02256e-02   7.75276e+00   7.73594e+00 -3.58528e-01  -3.22867e-01   2.72307e-01
Si    2.59294e+00   5.17808e+00   7.75765e+00 -4.30239e-01  -6.33908e-01  -9.37865e-01
Si    1.27009e+00   6.43782e+00   6.45680e+00  9.51169e-01   5.99320e-01  -7.02805e-02
Si    3.89487e+00   9.03672e+00   6.44470e+00 -9.76151e-01  -1.00807e-02   1.11193e-01
Si    1.28148e+00   9.05611e+00   9.01751e+00  4.72073e-01  -5.75412e-01   4.63866e-01
Si    3.87242e+00   6.43319e+00   9.00490e+00  2.99661e-01   8.14420e-01   6.83423e-01
Si    5.17937e+00   5.14563e+00   5.13288e+00 -4.71666e-01   3.56295e-01   8.61910e-01
Si    7.73654e+00   7.72124e+00   5.13072e+00  2.98464e-01   2.88152e-01   5.76764e-01
Si    5.15974e+00   7.75679e+00   7.72972e+00  1.72989e-01  -4.00972e-01   1.47748e-01
Si    7.74952e+00   5.15251e+00   7.76027e+00  6.94940e-02   2.32688e-01  -4.32539e-01
Si    6.46984e+00   6.46322e+00   6.45069e+00 -2.92572e-01  -5.16172e-01  -1.21373e-02
Si    9.04837e+00   9.00650e+00   6.44405e+00 -8.03978e-01  -5.97374e-02  -5.20397e-02
Si    6.43214e+00   9.04485e+00   9.03250e+00  8.04913e-01  -5.89455e-01  -4.42685e-02
Si    9.02305e+00   6.46574e+00   9.03633e+00  4.77661e-01  -3.19905e-02  -2.20248e-01
