64
Lattice="10.058212 0 0 0 10.058212 0 0 0 10.058212 " PBC="1 1 1" Properties=species:S:1:pos:R:3:force:R:3 Energy="-254.485825609"
Si    1.00567e+01   3.14002e-03   1.00537e+01  2.58492e-02   6.65907e-02   7.62375e-03
Si    2.52246e+00   2.52196e+00   2.50867e-03 -1.56582e-01  -2.29623e-02  -9.47876e-02
Si    1.00557e+01   2.51090e+00   2.52159e+00 -1.25636e-01   4.89372e-02  -6.64799e-02
Si    2.50920e+00   1.00555e+01   2.51143e+00  7.57791e-03   3.16091e-02   1.38716e-02
Si    1.24992e+00   1.26613e+00   1.25240e+00  1.55035e-01  -8.52497e-02   3.69137e-02
Si    3.77593e+00   3.77632e+00   1.25906e+00  3.05717e-02  -3.41506e-02   3.53625e-02
Si    1.24943e+00   3.77554e+00   3.76980e+00  1.33148e-01  -1.36108e-01   9.70675e-02
Si    3.77729e+00   1.25007e+00   3.77606e+00 -3.31435e-02   1.03284e-01  -1.91833e-01
Si    5.02846e+00   1.00557e+01   1.00538e+01  2.57601e-02   3.84994e-02   1.43593e-01
Si    7.54180e+00   2.51556e+00   8.16063e-03 -9.35947e-03  -8.41277e-02  -3.21667e-01
Si    5.03710e+00   2.51600e+00   2.51132e+00 -1.42844e-01  -6.10271e-02   1.17232e-01
Si    7.54770e+00   1.00551e+01   2.51355e+00 -3.14595e-02   5.67796e-02  -1.42947e-01
Si    6.28790e+00   1.25881e+00   1.25492e+00 -2.94382e-02  -1.84498e-01   4.34666e-02
Si    8.79498e+00   3.76472e+00   1.25810e+00  2.28399e-01   1.61292e-01   1.11190e-01
Si    6.29351e+00   3.76788e+00   3.77307e+00 -2.08197e-02   1.20910e-01   4.23998e-02
Si    8.79489e+00   1.25398e+00   3.77530e+00  6.24384e-02  -1.10980e-02   2.69692e-02
Si    1.39340e-03   5.03252e+00   5.88690e-03 -1.83987e-01  -2.14635e-01  -1.92567e-01
Si    2.51174e+00   7.53473e+00   1.42294e-04  8.28617e-02   7.72339e-02   8.95211e-02
Si    4.29046e-03   7.54720e+00   2.50937e+00 -1.53519e-01  -1.46959e-01  -1.89379e-02
Si    2.51020e+00   5.02299e+00   2.51161e+00  1.55214e-01   1.46183e-01   1.54925e-01
Si    1.25481e+00   6.27792e+00   1.25697e+00  9.04214e-02   1.63459e-01   8.59625e-02
Si    3.77745e+00   8.79346e+00   1.25998e+00 -1.18269e-01   1.84684e-02  -5.90693e-02
Si    1.25054e+00   8.79541e+00   3.77320e+00  1.44712e-01   6.84162e-02  -7.73912e-02
Si    3.78075e+00   6.28210e+00   3.77661e+00 -2.60154e-01  -2.77262e-02  -2.68168e-01
Si    5.02429e+00   5.03428e+00   1.00578e+01  1.47417e-01  -1.83673e-01  -1.91376e-01
Si    7.55039e+00   7.54156e+00   1.00531e+01 -1.47480e-01   1.12529e-01   1.81950e-01
Si    5.03478e+00   7.54158e+00   2.52034e+00 -5.93667e-02  -4.68658e-02  -7.37904e-02
Si    7.55029e+00   5.03350e+00   2.51601e+00 -2.74703e-01  -1.10893e-01  -1.94154e-01
Si    6.28097e+00   6.28915e+00   1.25010e+00  2.12893e-01  -2.02838e-02   1.35461e-01
Si    8.80617e+00   8.80428e+00   1.24818e+00 -4.31051e-02  -6.73194e-02   9.36735e-02
Si    6.28842e+00   8.80169e+00   3.76553e+00  4.93967e-02   1.76394e-02   3.05150e-01
Si    8.80065e+00   6.28121e+00   3.76628e+00  7.25129e-02   3.44193e-01   9.24997e-02
Si    1.00565e+01   1.00525e+01   5.02599e+00  3.62740e-02   1.37659e-01   1.02711e-01
Si    2.51383e+00   2.50884e+00   5.02703e+00 -8.25723e-02   6.68079e-02  -1.12787e-01
Si    1.00507e+01   2.51772e+00   7.54544e+00  9.97635e-02  -2.18530e-01  -8.92882e-02
Si    2.50957e+00   5.42763e-03   7.53671e+00  1.53690e-01  -2.35017e-01   2.25153e-01
Si    1.26131e+00   1.25451e+00   6.28857e+00 -3.27671e-01   1.44812e-01  -1.16637e-01
Si    3.76739e+00   3.76606e+00   6.28163e+00  6.81609e-02   3.15875e-02   2.13691e-03
Si    1.25405e+00   3.77054e+00   8.79262e+00  8.59271e-02   1.08406e-01   2.01624e-01
Si    3.77096e+00   1.25619e+00   8.80152e+00  5.87358e-02   1.13472e-01  -1.51810e-01
Si    5.03523e+00   6.18668e-03   5.03673e+00  1.00776e-01  -1.48636e-01  -1.90408e-01
Si    7.54176e+00   2.50780e+00   5.03713e+00  6.06973e-02   8.83751e-02  -9.12221e-02
Si    5.03544e+00   2.51868e+00   7.53764e+00 -2.20724e-01  -1.45996e-01   7.21042e-02
Si    7.54489e+00   1.00559e+01   7.54217e+00 -1.60586e-02   7.41970e-03  -7.28345e-02
Si    6.28803e+00   1.25865e+00   6.28876e+00  3.59426e-02  -5.59659e-02   1.10612e-01
Si    8.79957e+00   3.76994e+00   6.28714e+00 -3.17137e-02   1.52434e-01  -7.99814e-02
Si    6.28949e+00   3.76835e+00   8.79160e+00 -8.59897e-02   1.37019e-01   3.19646e-01
Si    8.79559e+00   1.25279e+00   8.79810e+00 -2.75372e-02   1.55615e-01   1.07506e-01
Si    1.00555e+01   5.03373e+00   5.02358e+00 -3.53894e-02  -1.22096e-01   1.31785e-01
Si    2.51138e+00   7.53546e+00   5.02064e+00  1.81695e-01   1.76993e-01   1.03998e-01
Si    6.07301e-03   7.54446e+00   7.53793e+00 -1.69461e-02  -8.62995e-02   1.10575e-01
Si    2.51734e+00   5.02758e+00   7.53721e+00  3.93219e-02   6.90895e-03   1.11429e-01
Si    1.26394e+00   6.28066e+00   6.27907e+00 -1.26013e-01   4.73293e-02   5.94189e-02
Si    3.77531e+00   8.80610e+00   6.27934e+00 -2.06962e-01  -1.61877e-01   3.24983e-02
Si    1.25745e+00   8.80144e+00   8.80884e+00  5.81701e-02   1.29777e-02  -2.04891e-01
Si    3.77527e+00   6.28989e+00   8.79854e+00 -2.11073e-01  -1.58124e-01  -6.34329e-04
Si    5.02372e+00   5.02775e+00   5.02805e+00  2.51242e-01  -1.23734e-01   1.29539e-01
Si    7.54473e+00   7.54090e+00   5.03747e+00 -5.14165e-02  -2.07233e-02  -2.37282e-01
Si    5.02194e+00   7.53814e+00   7.54251e+00  2.09759e-01   3.87449e-01   1.02563e-01
Si    7.53639e+00   5.03063e+00   7.54022e+00  1.87795e-01   5.35842e-03   3.93453e-02
Si    6.28152e+00   6.28865e+00   6.29293e+00 -7.99437e-02  -9.87342e-02  -1.81009e-01
Si    8.80218e+00   8.79950e+00   6.28492e+00  2.27531e-02   2.16711e-02   5.63977e-02
Si    6.29474e+00   8.80503e+00   8.80556e+00 -1.92806e-01  -2.27371e-01  -2.04098e-01
Si    8.79544e+00   6.28972e+00   8.80303e+00  2.27769e-01  -1.37637e-01  -2.07824e-01
