8
Lattice="4.974796 0 0 0 4.974796 0 0 0 4.974796 " PBC="1 1 1" Properties=species:S:1:pos:R:3:force:R:3 Energy="-30.964085"
Si    0.00000e+00   0.00000e+00   0.00000e+00 -9.32587e-15   7.63278e-17   5.89806e-17
Si    2.48740e+00   2.48740e+00   0.00000e+00 -5.95357e-15  -4.85723e-15  -4.47567e-15
Si    0.00000e+00   2.48740e+00   2.48740e+00 -3.10862e-15  -5.22499e-15  -5.10708e-15
Si    2.48740e+00   0.00000e+00   2.48740e+00 -5.66214e-15  -4.45477e-15  -4.88497e-15
Si    1.24370e+00   1.24370e+00   1.24370e+00  1.16573e-15   8.04912e-16   1.20024e-15
Si    3.73110e+00   3.73110e+00   1.24370e+00  7.36911e-15   7.96585e-15   3.71014e-16
Si    1.24370e+00   3.73110e+00   3.73110e+00  5.39846e-15   4.09395e-15   4.34738e-15
Si    3.73110e+00   1.24370e+00   3.73110e+00  8.06299e-15   5.34295e-16   8.07355e-15
