64
Lattice="11.470272 0 0 0 11.470272 0 0 0 11.470272 " PBC="1 1 1" Properties=species:S:1:pos:R:3:force:R:3 Energy="-267.196144491"
Si    1.14626e+01   9.21246e-03   1.14691e+01  1.15596e-01  -1.66968e-01   1.09130e-02
Si    2.87175e+00   2.87872e+00   2.03987e-03 -6.68523e-02  -9.91598e-02   4.66670e-02
Si    1.14693e+01   2.85798e+00   2.85722e+00  1.05842e-01   2.05989e-01   1.30561e-01
Si    2.87575e+00   8.40917e-04   2.87083e+00 -1.03676e-01  -8.28257e-03   1.89589e-02
Si    1.43485e+00   1.43191e+00   1.43234e+00  7.59104e-02   1.18557e-02  -3.14713e-02
Si    4.30821e+00   4.30533e+00   1.43105e+00 -4.06948e-02  -1.24877e-03   6.57758e-02
Si    1.44311e+00   4.30828e+00   4.30422e+00 -1.11176e-01  -1.16851e-01  -1.18625e-01
Si    4.30675e+00   1.44090e+00   4.30135e+00 -2.87399e-02  -1.90638e-02  -2.29040e-02
Si    5.73900e+00   1.77713e-03   7.02827e-03 -1.53422e-02   5.28522e-02  -8.47790e-02
Si    8.60299e+00   2.86194e+00   8.06440e-03  2.79984e-02   1.19624e-01  -1.25174e-01
Si    5.74247e+00   2.87315e+00   2.86447e+00 -1.21012e-01  -1.62875e-02   2.69421e-02
Si    8.60959e+00   1.14645e+01   2.86088e+00 -1.92113e-01   8.54368e-02   1.40059e-01
Si    7.16665e+00   1.44294e+00   1.43899e+00  7.67163e-02  -1.57018e-01  -1.03053e-02
Si    1.00385e+01   4.30383e+00   1.43368e+00 -3.94744e-02  -4.53135e-02   3.43243e-02
Si    7.16556e+00   4.29794e+00   4.29658e+00  1.02255e-01   9.64623e-02   3.63551e-02
Si    1.00377e+01   1.43753e+00   4.29188e+00  2.11751e-02  -1.24502e-01   1.02482e-01
Si    4.91400e-03   5.72833e+00   4.17734e-03 -4.28591e-02   1.11462e-01  -1.10809e-01
Si    2.86929e+00   8.59946e+00   1.14672e+01  5.28092e-02   1.10078e-01   3.32603e-02
Si    1.14685e+01   8.59961e+00   2.86328e+00  2.34704e-02   2.44756e-02  -4.51402e-03
Si    2.87358e+00   5.74242e+00   2.86361e+00 -2.98970e-03  -8.92564e-02   9.82593e-03
Si    1.44274e+00   7.16880e+00   1.42793e+00 -1.00650e-01   1.42346e-03   5.10468e-02
Si    4.30782e+00   1.00403e+01   1.43707e+00 -5.55825e-02  -7.56086e-02  -5.18874e-02
Si    1.42790e+00   1.00323e+01   4.30483e+00  1.26455e-01   7.96212e-03  -4.99054e-02
Si    4.30353e+00   7.16287e+00   4.30121e+00  6.62052e-02   1.09836e-01  -5.00041e-02
Si    5.73254e+00   5.73359e+00   1.14701e+01  8.02675e-02   4.38583e-02  -9.54430e-03
Si    8.61151e+00   8.60351e+00   6.34138e-03 -1.42527e-01   6.05365e-03  -6.13817e-02
Si    5.74207e+00   8.60454e+00   2.86325e+00 -6.66854e-02  -8.07499e-02   7.62417e-02
Si    8.60306e+00   5.74189e+00   2.86781e+00 -1.85302e-03  -1.11118e-01   1.25011e-02
Si    7.17214e+00   7.16471e+00   1.43383e+00 -2.13419e-02   6.38393e-02  -4.74180e-02
Si    1.00295e+01   1.00376e+01   1.43616e+00  1.77484e-01  -1.06370e-02  -6.29682e-02
Si    7.16422e+00   1.00320e+01   4.30848e+00  1.20303e-01   7.22647e-02  -6.66481e-02
Si    1.00319e+01   7.17456e+00   4.29978e+00  6.72236e-02  -3.60025e-02   6.42488e-02
Si    7.20637e-04   1.14649e+01   5.73944e+00 -5.95532e-02   9.59902e-02  -9.27608e-02
Si    2.86438e+00   2.86197e+00   5.73810e+00  1.09040e-01   1.09439e-01  -5.00158e-02
Si    1.02715e-03   2.86396e+00   8.60426e+00  2.42737e-02   3.22571e-02  -6.62316e-02
Si    2.86253e+00   1.14651e+01   8.60281e+00  1.11074e-01   1.12306e-01  -4.11357e-02
Si    1.43848e+00   1.43539e+00   7.16241e+00 -9.63694e-02  -8.75922e-02   1.16225e-01
Si    4.30367e+00   4.29426e+00   7.17404e+00 -5.27419e-02   9.56172e-02  -6.29665e-02
Si    1.43676e+00   4.29687e+00   1.00357e+01 -1.20793e-02   7.59217e-02  -1.45868e-02
Si    4.29282e+00   1.43925e+00   1.00441e+01  9.83617e-02  -8.89626e-02  -6.98472e-02
Si    5.73020e+00   2.05434e-03   5.73367e+00  5.77536e-02   1.01898e-02   6.45314e-02
Si    8.60595e+00   2.87003e+00   5.73022e+00 -6.44326e-02  -3.80026e-02   2.26650e-02
Si    5.73505e+00   2.86719e+00   8.60358e+00  1.05554e-02   2.24724e-02   1.06166e-01
Si    8.59819e+00   1.12693e-03   8.60587e+00  1.06039e-01   2.20832e-02  -8.47510e-02
Si    7.16696e+00   1.43931e+00   7.17243e+00  2.30412e-02  -5.60035e-02  -8.33552e-02
Si    1.00301e+01   4.29935e+00   7.17316e+00  8.57537e-02   8.57429e-02  -1.50404e-02
Si    7.17365e+00   4.30994e+00   1.00364e+01 -5.78226e-02  -1.45453e-01   6.15701e-02
Si    1.00417e+01   1.43412e+00   1.00350e+01 -1.32866e-01   2.39316e-02   1.39165e-02
Si    4.32900e-03   5.73887e+00   5.73516e+00 -1.11547e-01  -3.48250e-02   2.05518e-02
Si    2.87749e+00   8.60062e+00   5.73517e+00 -1.42231e-01  -3.64934e-02   1.64536e-02
Si    7.66770e-03   8.60111e+00   8.60584e+00 -1.29342e-01   7.31898e-02  -3.85623e-02
Si    2.86944e+00   5.74132e+00   8.60501e+00 -2.83981e-02  -1.33975e-01  -2.82692e-02
Si    1.43045e+00   7.16870e+00   7.17441e+00  1.19084e-01   3.25640e-02  -7.90564e-02
Si    4.30325e+00   1.00328e+01   7.16948e+00 -1.03863e-03   6.13409e-02   2.57211e-02
Si    1.43977e+00   1.00396e+01   1.00324e+01 -1.21048e-01  -2.05206e-02   1.25754e-01
Si    4.29829e+00   7.16348e+00   1.00398e+01  9.19150e-02   9.96289e-02  -4.08986e-02
Si    5.73554e+00   5.73258e+00   5.73182e+00  6.63587e-03  -2.79989e-02   6.58661e-02
Si    8.60522e+00   8.60372e+00   5.74568e+00 -6.29367e-02  -1.47882e-02  -1.73386e-01
Si    5.73873e+00   8.60806e+00   8.60780e+00 -2.73452e-02  -8.42240e-02  -1.49978e-02
Si    8.59871e+00   5.74309e+00   8.61017e+00  3.99163e-02  -1.03104e-02  -1.26262e-01
Si    7.16989e+00   7.17481e+00   7.16418e+00 -5.51480e-02  -6.87556e-02   1.01153e-01
Si    1.00318e+01   1.00320e+01   7.16339e+00  9.13990e-02   6.24423e-02   1.94408e-01
Si    7.17684e+00   1.00401e+01   1.00359e+01 -5.94127e-02  -3.72395e-02   1.20582e-01
Si    1.00322e+01   7.17572e+00   1.00366e+01  1.53326e-01  -9.53768e-02   7.47363e-02
