64
Lattice="10.058212 0 0 0 10.058212 0 0 0 10.058212 " PBC="1 1 1" Properties=species:S:1:pos:R:3:force:R:3 Energy="-254.52753169"
Si    1.39659e-03   1.00569e+01   1.63083e-03 -6.88303e-02   9.40002e-02  -5.42442e-02
Si    2.51690e+00   2.51693e+00   1.00580e+01 -5.75376e-02  -6.00767e-02  -1.57844e-02
Si    5.48386e-04   2.51594e+00   2.51527e+00 -5.30639e-02  -3.57549e-02   1.79339e-02
Si    2.51567e+00   1.00559e+01   2.51354e+00 -4.97384e-02   5.52519e-02  -5.13091e-03
Si    1.25506e+00   1.25907e+00   1.25664e+00  9.79232e-02  -1.43853e-02   1.99679e-02
Si    3.77273e+00   3.77060e+00   1.25651e+00  5.47555e-02   3.20116e-02   3.48056e-02
Si    1.25481e+00   3.77112e+00   3.77409e+00  8.95102e-02   5.57487e-03  -3.44896e-02
Si    3.77041e+00   1.25637e+00   3.77393e+00  5.91225e-03   2.71152e-02  -3.95884e-02
Si    5.02675e+00   1.00560e+01   6.52924e-04  2.78000e-02   4.37675e-02  -3.78515e-02
Si    7.54554e+00   2.51208e+00   1.24006e-03 -8.73250e-02   4.41147e-02  -4.53843e-02
Si    5.03068e+00   2.51242e+00   2.51534e+00 -6.29457e-02   3.02857e-02   2.47694e-02
Si    7.54371e+00   1.00581e+01   2.51684e+00 -5.49785e-04   3.03636e-02  -8.37813e-02
Si    6.28387e+00   1.25600e+00   1.25834e+00  5.69088e-02  -4.00025e-02  -2.26617e-02
Si    8.80005e+00   3.77071e+00   1.25826e+00  2.61030e-02   1.39961e-02  -2.69628e-03
Si    6.28849e+00   3.77054e+00   3.77162e+00 -3.84685e-02  -9.34912e-03   4.87196e-02
Si    8.79969e+00   1.25667e+00   3.77236e+00  4.40055e-02   2.65905e-02  -3.45780e-03
Si    1.36982e-03   5.02693e+00   9.35842e-04 -4.23412e-02   1.60664e-02  -2.23652e-02
Si    2.51480e+00   7.54184e+00   1.00562e+01 -3.12584e-02   2.05192e-03   2.83687e-02
Si    1.00569e+01   7.54191e+00   2.51670e+00  2.97404e-02   9.68595e-02  -6.75051e-02
Si    2.51546e+00   5.02779e+00   2.51490e+00 -1.40985e-02  -3.48898e-02   2.30401e-02
Si    1.25756e+00   6.28423e+00   1.25898e+00  7.47507e-03   3.43841e-02  -1.77017e-02
Si    3.77135e+00   8.79915e+00   1.25572e+00  2.53863e-03  -4.92053e-02   3.30094e-02
Si    1.25723e+00   8.80200e+00   3.77427e+00 -2.76788e-02  -2.31314e-02  -5.88232e-02
Si    3.77371e+00   6.28638e+00   3.76985e+00 -2.20240e-02  -2.94048e-02   6.65726e-02
Si    5.03118e+00   5.02843e+00   1.00568e+01 -7.09433e-02   8.76247e-03  -3.52583e-03
Si    7.54553e+00   7.54183e+00   1.00569e+01 -6.21369e-02   3.56278e-02   6.84744e-03
Si    5.02959e+00   7.54398e+00   2.51686e+00  9.77903e-03   1.49614e-02  -8.64929e-02
Si    7.54342e+00   5.02724e+00   2.51586e+00 -3.28625e-03   4.62056e-02  -4.36798e-02
Si    6.28488e+00   6.28475e+00   1.25696e+00  4.85757e-02   3.00667e-02   3.15020e-02
Si    8.80013e+00   8.80329e+00   1.25548e+00  1.33754e-02  -7.78954e-02   7.37905e-02
Si    6.28812e+00   8.80179e+00   3.76986e+00 -1.26364e-02  -3.34275e-02   1.18938e-01
Si    8.79886e+00   6.28873e+00   3.77029e+00  1.76407e-02  -1.00053e-01   6.54576e-02
Si    1.00561e+01   1.00571e+01   5.02986e+00 -3.92130e-04   1.39083e-02   4.61423e-03
Si    2.51479e+00   2.51554e+00   5.03143e+00 -7.64265e-02  -6.65419e-02  -3.43845e-02
Si    1.00571e+01   2.51321e+00   7.54540e+00  1.98641e-02   2.89670e-02  -7.78326e-02
Si    2.51317e+00   9.50030e-04   7.54192e+00  1.04198e-02  -1.74332e-02   8.15673e-02
Si    1.25579e+00   1.25510e+00   6.28764e+00 -1.48432e-02   6.10843e-02  -4.07157e-02
Si    3.77022e+00   3.76994e+00   6.28500e+00  6.68733e-02   5.28434e-02   6.18401e-02
Si    1.25617e+00   3.76949e+00   8.79970e+00  3.43332e-02   3.31736e-02   2.05207e-02
Si    3.77268e+00   1.25858e+00   8.79956e+00 -1.92800e-02  -3.78610e-02   1.38155e-02
Si    5.02967e+00   2.07328e-03   5.02932e+00 -1.06038e-02  -8.15238e-02  -2.99970e-02
Si    7.54303e+00   2.51210e+00   5.03076e+00  2.38590e-02   4.65511e-02   2.64201e-02
Si    5.03070e+00   2.51244e+00   7.54201e+00 -3.75348e-02   6.22526e-02   4.72343e-04
Si    7.54536e+00   3.22669e-04   7.54290e+00 -1.78020e-02   1.12084e-02  -2.19123e-02
Si    6.28460e+00   1.25526e+00   6.28669e+00  6.37251e-02   4.15311e-03   8.79576e-03
Si    8.80199e+00   3.77410e+00   6.28763e+00 -3.43325e-02  -8.19047e-02  -9.49518e-03
Si    6.28574e+00   3.77313e+00   8.79878e+00  4.07136e-02  -1.15356e-01   6.63999e-02
Si    8.80155e+00   1.25839e+00   8.79863e+00  1.95714e-02  -8.46664e-02   9.17603e-02
Si    1.00577e+01   5.02740e+00   5.02798e+00 -4.29443e-02   9.75443e-02  -9.17376e-03
Si    2.51318e+00   7.54268e+00   5.02728e+00  5.78995e-02   7.30723e-03   1.71842e-02
Si    9.76904e-04   7.54141e+00   7.54407e+00 -1.58604e-02   5.98544e-02  -1.08639e-02
Si    2.51294e+00   5.02914e+00   7.54256e+00  2.15921e-02  -6.71410e-03   7.75653e-03
Si    1.25662e+00   6.28641e+00   6.28448e+00 -5.14747e-03  -2.97614e-02  -3.44658e-03
Si    3.76997e+00   8.80267e+00   6.28584e+00  6.99027e-03  -2.73849e-02  -4.15479e-02
Si    1.25561e+00   8.80245e+00   8.80300e+00  5.10852e-02  -4.46121e-02  -6.14130e-02
Si    3.77349e+00   6.28746e+00   8.79892e+00 -2.30660e-02  -6.39977e-02   1.55687e-02
Si    5.03118e+00   5.02950e+00   5.03112e+00 -3.16435e-02  -2.79203e-02  -5.08909e-02
Si    7.54398e+00   7.54119e+00   5.03159e+00 -6.18055e-02   4.91162e-02  -5.98683e-02
Si    5.02726e+00   7.54463e+00   7.54283e+00  3.46077e-02   5.56029e-02  -1.80927e-03
Si    7.54205e+00   5.02730e+00   7.54451e+00  2.36263e-02   6.20985e-02  -3.31000e-02
Si    6.28540e+00   6.28695e+00   6.28857e+00  1.70246e-02  -1.56943e-02   1.83175e-02
Si    8.79944e+00   8.79902e+00   6.28584e+00  4.70884e-02  -1.17571e-02   4.37767e-02
Si    6.28736e+00   8.80317e+00   8.79924e+00 -8.58331e-03  -5.83685e-02   3.12523e-02
Si    8.80073e+00   6.28527e+00   8.79945e+00  3.38110e-02  -5.46501e-02   2.78303e-02
