64
Lattice="10.166832 0 0 0 10.166832 0 0 0 10.166832 " PBC="1 1 1" Properties=species:S:1:pos:R:3:force:R:3 Energy="-260.520969703"
Si    1.01658e+01   6.34804e-03   1.01660e+01  1.54524e-02  -6.96728e-02  -9.78771e-02
Si    2.53988e+00   2.53875e+00   1.01649e+01  1.75543e-01  -1.24654e-02   1.45309e-01
Si    1.01668e+01   2.55103e+00   2.53428e+00 -3.57783e-02  -8.01178e-02   1.28437e-01
Si    2.53507e+00   1.76395e-03   2.55067e+00  1.21134e-01   8.21427e-02  -1.68324e-01
Si    1.26619e+00   1.27157e+00   1.27281e+00  8.67905e-02   1.54776e-02  -9.15524e-03
Si    3.81168e+00   3.81715e+00   1.27924e+00  1.24132e-03  -2.38071e-01  -2.51803e-01
Si    1.26507e+00   3.81532e+00   3.81663e+00  2.71083e-01  -3.68220e-03  -2.28474e-01
Si    3.81047e+00   1.27942e+00   3.80840e+00 -1.05073e-01  -1.56101e-01   1.19768e-01
Si    5.07498e+00   2.02337e-03   1.01626e+01  1.74578e-01  -5.21809e-02   1.51546e-01
Si    7.63312e+00   2.54684e+00   1.01611e+01 -2.69543e-01  -1.63189e-01   2.96422e-02
Si    5.07536e+00   2.53814e+00   2.54423e+00  9.59802e-02   3.25776e-02  -1.93027e-01
Si    7.62017e+00   1.01643e+01   2.53546e+00  2.40975e-01   8.88873e-02   4.80913e-02
Si    6.35222e+00   1.27189e+00   1.27018e+00 -1.43968e-02   8.48665e-02  -1.50084e-01
Si    8.88893e+00   3.81161e+00   1.26979e+00  1.59841e-01   1.10852e-01  -5.92642e-02
Si    6.34711e+00   3.80294e+00   3.80463e+00  1.08595e-01   1.86908e-01   8.01314e-02
Si    8.90062e+00   1.27680e+00   3.81142e+00 -6.79984e-02  -1.16979e-01  -1.73785e-01
Si    4.84268e-03   5.07675e+00   4.14745e-04  4.47588e-02   5.04590e-02   3.82144e-02
Si    2.53681e+00   7.62804e+00   2.11121e-03  8.90717e-02   3.41342e-02   2.36349e-02
Si    3.12355e-03   7.62615e+00   2.53584e+00 -7.22349e-02  -8.75034e-04   2.14703e-01
Si    2.54961e+00   5.08604e+00   2.53427e+00 -2.48533e-01   3.04508e-02   3.32624e-01
Si    1.27434e+00   6.35968e+00   1.27417e+00 -5.86413e-02  -1.79139e-01  -1.29740e-01
Si    3.81045e+00   8.89870e+00   1.27807e+00 -7.36729e-02   2.28954e-02  -6.67188e-02
Si    1.27563e+00   8.89575e+00   3.81201e+00 -1.89256e-01  -6.35815e-02   1.86116e-01
Si    3.81084e+00   6.35829e+00   3.81518e+00  1.38223e-01  -1.40418e-01  -2.64237e-02
Si    5.08016e+00   5.07968e+00   2.40494e-03  9.75212e-02   4.38247e-02   1.18624e-02
Si    7.62115e+00   7.62124e+00   4.84005e-03  6.45010e-02   1.78007e-01  -1.63897e-01
Si    5.08203e+00   7.62952e+00   2.54705e+00 -6.46891e-02  -6.88904e-02  -9.26852e-02
Si    7.62326e+00   5.08002e+00   2.53852e+00 -9.18327e-02   1.35793e-01   9.18738e-02
Si    6.35002e+00   6.36181e+00   1.27024e+00 -5.29660e-02  -1.99764e-01   1.04867e-01
Si    8.90261e+00   8.89528e+00   1.26479e+00 -1.51734e-01   2.54528e-02   5.01833e-02
Si    6.35166e+00   8.89834e+00   3.80427e+00  1.15271e-01  -4.53583e-02   2.33945e-01
Si    8.89528e+00   6.35493e+00   3.81834e+00  1.55703e-01  -1.37955e-01  -1.99866e-01
Si    1.01639e+01   3.96563e-03   5.08832e+00 -6.95893e-03  -1.70141e-01  -1.71479e-01
Si    2.53701e+00   2.53786e+00   5.08382e+00  7.39930e-02   1.75432e-01   4.62256e-02
Si    1.05645e-03   2.54409e+00   7.62709e+00 -1.89731e-02  -1.49628e-01   7.95573e-03
Si    2.54715e+00   1.01642e+01   7.62581e+00 -2.44737e-01   1.93959e-01   3.00659e-02
Si    1.26454e+00   1.27061e+00   6.35108e+00  1.53477e-01  -3.80856e-02   2.08255e-01
Si    3.81707e+00   3.81341e+00   6.35810e+00 -3.53067e-02  -5.02557e-02  -2.63476e-01
Si    1.27852e+00   3.80436e+00   8.89230e+00 -1.03918e-01   1.29470e-01   4.30703e-02
Si    3.81809e+00   1.27011e+00   8.89345e+00 -2.10586e-01   5.56536e-02   2.17846e-02
Si    5.08517e+00   9.52480e-03   5.07516e+00 -1.06963e-01  -1.59193e-01   8.32223e-02
Si    7.63030e+00   2.54731e+00   5.07576e+00 -7.36572e-02  -5.63431e-02   1.88469e-01
Si    5.07835e+00   2.54300e+00   7.62722e+00  1.89674e-01  -1.44990e-01  -1.39940e-01
Si    7.63181e+00   9.30532e-04   7.61805e+00 -1.99488e-01  -2.89617e-02   7.93034e-02
Si    6.35767e+00   1.26669e+00   6.35210e+00 -3.51047e-04   2.58141e-01  -2.22135e-02
Si    8.90224e+00   3.81290e+00   6.35946e+00 -1.24995e-01   7.28764e-03  -9.39578e-02
Si    6.35017e+00   3.80939e+00   8.89121e+00  3.83626e-02   6.03909e-02   1.18476e-01
Si    8.89061e+00   1.26775e+00   8.89051e+00  1.67151e-01   1.05972e-01   3.09720e-02
Si    5.44183e-03   5.07786e+00   5.08643e+00 -1.58856e-01   2.00266e-01   3.88573e-02
Si    2.54326e+00   7.61814e+00   5.08566e+00  6.48241e-04   2.52876e-01   5.70818e-02
Si    1.18386e-03   7.63494e+00   7.62660e+00 -1.63252e-01  -1.78770e-01  -6.67337e-02
Si    2.54289e+00   5.07554e+00   7.61961e+00 -4.03653e-02   1.97639e-01   9.55736e-02
Si    1.26970e+00   6.35708e+00   6.35363e+00 -7.75016e-03  -8.10384e-02   1.13734e-01
Si    3.80968e+00   8.90419e+00   6.36033e+00  1.22939e-01  -9.82542e-02  -3.28848e-01
Si    1.26902e+00   8.89593e+00   8.89489e+00  6.52854e-02   1.51805e-01   8.16192e-02
Si    3.80642e+00   6.34978e+00   8.90378e+00  8.28726e-03   6.13946e-02  -1.39825e-01
Si    5.09293e+00   5.08710e+00   5.08401e+00 -1.80647e-01  -1.30290e-01  -7.81299e-02
Si    7.63134e+00   7.62405e+00   5.08128e+00 -3.38461e-01   2.48506e-02   1.35812e-02
Si    5.07594e+00   7.63451e+00   7.63103e+00  1.10179e-01  -2.47308e-01  -3.87180e-02
Si    7.62243e+00   5.08077e+00   7.62501e+00  1.30814e-01   4.89863e-03   9.63412e-02
Si    6.35619e+00   6.34834e+00   6.35835e+00 -2.88639e-02   3.47237e-01   2.50038e-02
Si    8.88620e+00   8.89694e+00   6.35148e+00  2.64756e-01  -2.57960e-02   7.54235e-03
Si    6.35553e+00   8.90403e+00   8.89309e+00  4.82415e-02  -6.69026e-02   8.33392e-02
Si    8.89729e+00   6.35299e+00   8.90156e+00  1.04105e-02   4.39303e-03  -1.06979e-01
