8
Lattice="5.507034 0 0 0 5.507034 0 0 0 5.507034 " PBC="1 1 1" Properties=species:S:1:pos:R:3:force:R:3 Energy="-34.6056068325"
Si    0.00000e+00   0.00000e+00   0.00000e+00 -2.44249e-15  -2.47988e-15   1.82224e-15
Si    2.75352e+00   2.75352e+00   0.00000e+00 -3.16414e-15  -3.30291e-15  -2.83107e-15
Si    0.00000e+00   2.75352e+00   2.75352e+00 -2.83107e-15  -3.15679e-15  -3.17360e-15
Si    2.75352e+00   0.00000e+00   2.75352e+00 -3.19189e-15  -2.91434e-15  -3.16414e-15
Si    1.37676e+00   1.37676e+00   1.37676e+00  0.00000e+00  -1.00974e-28   1.42370e-16
Si    4.13028e+00   4.13028e+00   1.37676e+00  5.62230e-15   5.64761e-15   4.69396e-16
Si    1.37676e+00   4.13028e+00   4.13028e+00  2.58127e-15   3.41394e-15   3.33067e-15
Si    4.13028e+00   1.37676e+00   4.13028e+00  3.42357e-15   2.67417e-15   3.32218e-15
