64
Lattice="11.274756 0 0 0 11.274756 0 0 0 11.274756 " PBC="1 1 1" Properties=species:S:1:pos:R:3:force:R:3 Energy="-272.589195662"
Si    9.22308e-04   6.42997e-03   1.12747e+01 -5.35686e-03  -1.01183e-01   6.65029e-02
Si    2.81440e+00   2.81236e+00   1.12667e+01  8.76068e-02   8.94437e-02   1.17356e-01
Si    1.12664e+01   2.81144e+00   2.82509e+00  9.83535e-02   6.07213e-02  -1.05879e-01
Si    2.81295e+00   1.12703e+01   2.82674e+00  1.61073e-01   2.52187e-02  -2.24322e-01
Si    1.41223e+00   1.40583e+00   1.41000e+00 -6.67660e-02   4.20780e-02   5.49847e-02
Si    4.22255e+00   4.23000e+00   1.41305e+00  1.14015e-01  -1.20329e-01  -1.33563e-01
Si    1.40404e+00   4.21975e+00   4.23249e+00  1.00698e-01   8.12215e-02  -1.14627e-01
Si    4.22261e+00   1.41187e+00   4.22248e+00  1.25622e-01  -5.43553e-02   6.74162e-02
Si    5.63845e+00   1.12713e+01   1.12663e+01 -5.94856e-03   6.45887e-02   7.55359e-02
Si    8.46222e+00   2.81825e+00   1.12722e+01 -3.52532e-02  -4.60632e-02   5.38202e-02
Si    5.64450e+00   2.82660e+00   2.82668e+00 -1.31115e-01  -1.27172e-01  -1.71492e-01
Si    8.46353e+00   3.17856e-03   2.81492e+00 -1.11025e-01  -3.71471e-02  -1.66251e-02
Si    7.04581e+00   1.40760e+00   1.40318e+00  2.39502e-02   4.71524e-02   5.95465e-02
Si    9.86369e+00   4.22671e+00   1.41191e+00 -6.23476e-02  -5.15339e-03   7.42953e-02
Si    7.04115e+00   4.22704e+00   4.23069e+00  1.53811e-01   7.28681e-02  -1.71225e-02
Si    9.85711e+00   1.41485e+00   4.22741e+00  3.63698e-02  -8.28269e-02   1.52046e-01
Si    1.12655e+01   5.63203e+00   5.01237e-03  1.77029e-01   5.52469e-02  -4.06497e-02
Si    2.81943e+00   8.46090e+00   9.81670e-03 -2.35615e-02  -6.17926e-02  -1.83730e-01
Si    1.12687e+01   8.45475e+00   2.81450e+00  2.13706e-02   7.11768e-02   7.13736e-02
Si    2.82811e+00   5.63254e+00   2.81413e+00 -2.70639e-01   9.57558e-02   1.37342e-01
Si    1.40384e+00   7.05470e+00   1.41068e+00  6.12488e-02  -1.76361e-01   3.32329e-03
Si    4.23480e+00   9.86302e+00   1.40009e+00 -1.04784e-01   1.14835e-01   1.55528e-01
Si    1.40932e+00   9.87106e+00   4.22248e+00 -8.52690e-02  -1.63288e-01   1.52181e-01
Si    4.22223e+00   7.04871e+00   4.23387e+00  1.27585e-01  -6.08668e-02  -1.31947e-01
Si    5.63155e+00   5.64328e+00   1.12740e+01  9.71709e-02  -8.91306e-02   6.53764e-02
Si    8.46153e+00   8.46220e+00   4.32226e-03 -8.19595e-02  -2.00079e-01  -1.24373e-01
Si    5.63318e+00   8.45319e+00   2.80969e+00  8.36338e-02   5.66439e-02   1.83312e-01
Si    8.44863e+00   5.64439e+00   2.81958e+00  9.72690e-02  -1.69288e-01   5.33698e-02
Si    7.05251e+00   7.04529e+00   1.41487e+00 -1.01383e-01   7.62468e-02  -1.51036e-01
Si    9.86162e+00   9.86066e+00   1.40200e+00  1.22768e-01   1.47378e-01   8.64506e-02
Si    7.04845e+00   9.87375e+00   4.23044e+00 -5.00376e-02  -9.34383e-02  -1.78136e-01
Si    9.86370e+00   7.04533e+00   4.22753e+00  4.02919e-03   1.35159e-02   7.63642e-02
Si    1.12729e+01   1.12747e+01   5.64405e+00 -1.53105e-02   3.87371e-02  -1.55960e-01
Si    2.81919e+00   2.81568e+00   5.63317e+00  2.71087e-02   2.91398e-02   9.61263e-02
Si    1.12698e+01   2.82596e+00   8.45631e+00  1.46351e-01  -1.51652e-01   1.90404e-02
Si    2.81932e+00   2.88918e-03   8.45008e+00  5.93153e-02  -1.75659e-02   7.21015e-02
Si    1.41105e+00   1.40618e+00   7.04146e+00 -6.22419e-02   1.17412e-01   8.30843e-02
Si    4.23536e+00   4.21915e+00   7.05621e+00 -1.04869e-01   1.03721e-01  -2.26019e-01
Si    1.41512e+00   4.23266e+00   9.86361e+00 -1.66590e-01  -6.45971e-02   4.89082e-02
Si    4.23465e+00   1.41266e+00   9.86421e+00 -1.51810e-01  -1.35053e-01  -1.57665e-02
Si    5.64230e+00   1.12742e+01   5.63596e+00 -1.52485e-01   5.19107e-02  -2.76758e-02
Si    8.44775e+00   2.82267e+00   5.64461e+00  2.30096e-02  -4.98911e-02  -7.95885e-02
Si    5.62687e+00   2.80938e+00   8.45498e+00  2.46209e-01   1.18558e-01   9.78042e-02
Si    8.46128e+00   9.88243e-04   8.46370e+00 -1.30673e-01  -7.61680e-03  -6.73039e-02
Si    7.03838e+00   1.41037e+00   7.04434e+00  1.16332e-01  -6.74521e-02   1.11117e-01
Si    9.86196e+00   4.22036e+00   7.05153e+00  4.16900e-02   1.02118e-01  -1.03478e-01
Si    7.04953e+00   4.22456e+00   9.87175e+00 -1.05120e-01   1.26033e-02  -1.28698e-01
Si    9.87132e+00   1.40539e+00   9.86855e+00 -3.07154e-02   1.14348e-01  -4.41305e-02
Si    5.55804e-03   5.63184e+00   5.64222e+00 -1.86169e-01  -2.18599e-02  -6.45268e-02
Si    2.82306e+00   8.45337e+00   5.63860e+00 -1.66787e-01   5.27979e-02   6.55296e-04
Si    2.59908e-03   8.45668e+00   8.45442e+00  4.34144e-02  -1.86327e-02   9.02046e-02
Si    2.81319e+00   5.63019e+00   8.45122e+00  1.10904e-01   8.40294e-02   1.60214e-02
Si    1.40310e+00   7.03883e+00   7.04436e+00  1.20685e-01   1.08353e-01   2.47204e-02
Si    4.23068e+00   9.86226e+00   7.04458e+00  2.15145e-02   3.52411e-02   3.32748e-02
Si    1.41078e+00   9.87523e+00   9.87103e+00  1.71270e-02  -9.85844e-02  -7.19670e-02
Si    4.22576e+00   7.04318e+00   9.86319e+00 -9.55461e-02   6.93552e-02   1.58386e-02
Si    5.64366e+00   5.63559e+00   5.63003e+00 -1.00468e-01   4.85444e-02   2.19746e-01
Si    8.44756e+00   8.46154e+00   5.63531e+00  1.73643e-01  -1.82743e-02   8.79854e-02
Si    5.63835e+00   8.45645e+00   8.46216e+00 -2.40270e-02  -5.00196e-02  -6.55812e-02
Si    8.46022e+00   5.63125e+00   8.45128e+00 -4.45529e-02   7.85137e-03   1.24389e-01
Si    7.05347e+00   7.04722e+00   7.05444e+00 -1.00976e-01  -1.64887e-02  -1.07690e-01
Si    9.87186e+00   9.86838e+00   7.05388e+00 -1.35265e-01  -6.07836e-02  -7.43007e-02
Si    7.04172e+00   9.86119e+00   9.87020e+00  1.42929e-01   4.46076e-02  -5.52623e-02
Si    9.86983e+00   7.03879e+00   9.86234e+00 -7.47851e-02   1.13525e-01   3.43080e-02
