64
Lattice="11.83958 0 0 0 11.83958 0 0 0 11.83958 " PBC="1 1 1" Properties=species:S:1:pos:R:3:force:R:3 Energy="-252.448063987"
Si    1.18393e+01   1.08281e-04   4.60690e-03 -2.61114e-02   2.23530e-02  -7.74716e-02
Si    2.96680e+00   2.96658e+00   1.18331e+01 -1.50338e-01  -3.41865e-02   1.66540e-01
Si    1.49541e-03   2.95315e+00   2.96887e+00 -6.06233e-02   9.68982e-02  -1.23360e-01
Si    2.95936e+00   1.18312e+01   2.96608e+00 -2.34804e-02   1.81557e-02  -7.64431e-02
Si    1.47382e+00   1.47490e+00   1.48662e+00  1.38189e-01   6.39620e-02  -6.03513e-02
Si    4.44962e+00   4.43187e+00   1.48473e+00 -1.56668e-01   1.58696e-01  -1.02669e-01
Si    1.48748e+00   4.43240e+00   4.43872e+00 -6.00758e-03   6.02621e-02   6.46003e-03
Si    4.44407e+00   1.47179e+00   4.43291e+00 -2.06298e-02   8.91245e-02   5.41575e-02
Si    5.92435e+00   1.89107e-03   1.18370e+01 -8.15689e-02   3.40672e-02   2.15574e-02
Si    8.88245e+00   2.96004e+00   4.13382e-04 -1.18916e-01   5.34232e-02  -1.15945e-01
Si    5.91599e+00   2.96602e+00   2.95141e+00  8.36479e-02  -1.28456e-01   1.04622e-01
Si    8.87442e+00   9.53057e-04   2.95478e+00  8.07704e-02   4.50178e-02   2.30263e-02
Si    7.39931e+00   1.48585e+00   1.47174e+00 -4.23567e-03  -2.41328e-02   6.24866e-02
Si    1.03498e+01   4.44033e+00   1.47182e+00  1.39386e-01  -6.90155e-02   1.58758e-01
Si    7.38968e+00   4.44325e+00   4.44016e+00  1.38824e-01  -4.93183e-03   8.60976e-03
Si    1.03645e+01   1.47776e+00   4.44147e+00 -1.13377e-01   1.51671e-02   9.76060e-05
Si    1.18325e+01   5.91687e+00   3.95285e-03  1.10203e-02   7.75747e-02  -1.06070e-01
Si    2.96401e+00   8.87909e+00   1.89214e-03 -6.21909e-02   1.40275e-02  -1.51115e-02
Si    1.18379e+01   8.86831e+00   2.95822e+00  2.66947e-02   1.31067e-01  -2.00430e-02
Si    2.95520e+00   5.92675e+00   2.95192e+00  6.41533e-02  -1.23967e-01   5.94368e-02
Si    1.47494e+00   7.40212e+00   1.47782e+00  2.66003e-02  -3.46429e-02  -3.96422e-02
Si    4.44115e+00   1.03587e+01   1.47769e+00  2.54552e-02   2.09733e-02   1.37247e-02
Si    1.47232e+00   1.03542e+01   4.43776e+00  4.65238e-02  -2.57630e-02   1.76916e-02
Si    4.43527e+00   7.39281e+00   4.44613e+00  4.40691e-02   1.19357e-01  -1.38459e-01
Si    5.91416e+00   5.91619e+00   1.18345e+01  3.25795e-02   8.85923e-02   3.68421e-02
Si    8.87440e+00   8.87294e+00   1.18322e+01  1.17391e-01   1.60308e-01   3.67318e-02
Si    5.92520e+00   8.87899e+00   2.95233e+00 -5.32458e-02   7.62845e-03   1.25457e-01
Si    8.88731e+00   5.92145e+00   2.96034e+00 -1.25445e-01   1.40634e-02  -3.23212e-02
Si    7.40384e+00   7.40631e+00   1.47077e+00 -4.08637e-02  -1.49586e-01   5.41544e-02
Si    1.03675e+01   1.03613e+01   1.48044e+00 -1.36326e-01  -9.57423e-02  -2.42913e-02
Si    7.40082e+00   1.03696e+01   4.44352e+00 -4.00433e-03  -1.20264e-01  -1.00724e-01
Si    1.03679e+01   7.40078e+00   4.43490e+00 -3.96854e-02  -6.74022e-02   9.65952e-02
Si    1.18378e+01   1.18390e+01   5.91392e+00  4.42379e-02   2.48447e-02   6.58107e-02
Si    2.96638e+00   2.95825e+00   5.92350e+00 -1.94449e-02  -5.17134e-02  -6.17388e-02
Si    6.95193e-03   2.96064e+00   8.88772e+00 -1.11291e-01   4.15167e-02  -9.46565e-02
Si    2.95362e+00   1.18369e+01   8.87582e+00  3.88312e-02   6.64442e-02   8.00640e-02
Si    1.47651e+00   1.48740e+00   7.39934e+00  2.30674e-02  -9.30886e-02  -1.89049e-02
Si    4.43196e+00   4.43297e+00   7.41039e+00  1.60380e-01   8.73127e-02  -9.49983e-02
Si    1.48100e+00   4.44667e+00   1.03573e+01  1.75187e-02   3.67632e-03   3.96869e-02
Si    4.43215e+00   1.48895e+00   1.03682e+01  8.02488e-02  -1.57141e-01  -1.26689e-01
Si    5.92306e+00   1.18384e+01   5.91643e+00 -2.11734e-02   3.35403e-02   8.45591e-02
Si    8.88867e+00   2.96689e+00   5.92978e+00 -1.16904e-01  -7.51133e-02  -1.69762e-01
Si    5.92321e+00   2.95231e+00   8.88498e+00 -7.28714e-02   4.66214e-02  -3.98642e-02
Si    8.87198e+00   1.18357e+01   8.87260e+00  9.68344e-02   6.31317e-02   5.78970e-02
Si    7.40530e+00   1.47997e+00   7.40050e+00 -5.56545e-02   8.74803e-03  -3.76945e-02
Si    1.03619e+01   4.43961e+00   7.39101e+00  1.03358e-01   2.56492e-03   1.61850e-01
Si    7.39008e+00   4.44552e+00   1.03528e+01  1.35553e-01  -8.45647e-02   6.52584e-02
Si    1.03524e+01   1.48134e+00   1.03558e+01  6.79692e-02  -5.84484e-02   2.71571e-02
Si    9.32650e-03   5.91389e+00   5.92094e+00 -5.42876e-02   3.81899e-02  -8.42828e-02
Si    2.95730e+00   8.87629e+00   5.91951e+00  1.35506e-02   4.99415e-02   2.70477e-02
Si    4.24114e-03   8.87318e+00   8.88857e+00 -7.11409e-02   1.14872e-01  -1.43021e-01
Si    2.95941e+00   5.92534e+00   8.87322e+00 -2.60822e-02  -2.85312e-03   6.77517e-02
Si    1.47630e+00   7.40036e+00   7.39672e+00  3.92462e-02  -8.68309e-03   3.36898e-02
Si    4.44390e+00   1.03582e+01   7.40575e+00 -5.77687e-02  -9.68207e-04  -8.43832e-02
Si    1.47779e+00   1.03567e+01   1.03639e+01  3.35715e-02   2.06620e-02   4.40603e-03
Si    4.43808e+00   7.40733e+00   1.03553e+01 -2.78268e-02  -1.13193e-01   5.51901e-02
Si    5.91985e+00   5.92929e+00   5.91979e+00 -3.98637e-02  -1.22947e-01   1.12461e-01
Si    8.88305e+00   8.88352e+00   5.91413e+00  4.25599e-02   2.45834e-02  -1.66279e-04
Si    5.91359e+00   8.87781e+00   8.88716e+00  1.60251e-01   6.67289e-02  -6.92389e-02
Si    8.88446e+00   5.91517e+00   8.87531e+00 -5.66669e-02   5.09146e-02  -3.75807e-02
Si    7.41015e+00   7.40786e+00   7.39604e+00 -9.25202e-02  -4.07905e-02   5.82085e-02
Si    1.03597e+01   1.03667e+01   7.39675e+00  4.01691e-02  -1.17554e-01   4.42744e-02
Si    7.40350e+00   1.03677e+01   1.03615e+01 -7.61239e-02  -1.14108e-01  -4.66061e-02
Si    1.03538e+01   7.40376e+00   1.03499e+01  5.06849e-02  -1.15756e-01   1.10228e-01
