64
Lattice="10.64476 0 0 0 10.64476 0 0 0 10.64476 " PBC="1 1 1" Properties=species:S:1:pos:R:3:force:R:3 Energy="-275.553257274"
Si    1.06219e+01   1.06278e+01   1.06282e+01  4.63506e-01   2.04117e-01   1.44629e-01
Si    2.66512e+00   2.65321e+00   1.06169e+01  1.57401e-01  -5.25743e-02   6.21758e-01
Si    1.06207e+01   2.67576e+00   2.66176e+00  6.70813e-01  -6.68390e-01  -5.88898e-02
Si    2.67929e+00   7.40962e-03   2.63743e+00 -2.66230e-02  -8.90274e-02   1.83967e-01
Si    1.34883e+00   1.31254e+00   1.30509e+00 -6.45348e-01   3.72998e-01   2.00594e-01
Si    3.99541e+00   3.98282e+00   1.31672e+00 -8.07725e-02   3.02186e-01   1.79481e-01
Si    1.31079e+00   4.00245e+00   3.99673e+00  2.00945e-01  -2.33585e-01  -1.38760e-01
Si    3.97837e+00   1.34534e+00   3.99518e+00  4.00705e-01  -1.95062e-01   1.56744e-01
Si    5.32411e+00   1.06199e+01   9.95082e-03  1.33390e-01   5.61453e-01   1.16275e-01
Si    7.99557e+00   2.68654e+00   1.06424e+01 -1.17044e-01  -5.67570e-01  -1.12770e-01
Si    5.33989e+00   2.67733e+00   2.67010e+00 -2.44462e-01  -5.23150e-01  -3.42072e-01
Si    7.99442e+00   1.06111e+01   2.67858e+00  1.18508e-02   2.23914e-01  -2.09192e-01
Si    6.68337e+00   1.31611e+00   1.33313e+00 -2.54458e-01   1.44915e-01   9.39379e-02
Si    9.33183e+00   3.97486e+00   1.32578e+00 -4.30762e-01   7.19320e-01   1.29461e-01
Si    6.63789e+00   3.98099e+00   4.00582e+00  5.63333e-01   1.96786e-01   8.14722e-02
Si    9.29176e+00   1.34819e+00   4.00733e+00  4.67608e-01  -4.98430e-01  -3.34085e-01
Si    9.42506e-03   5.29707e+00   1.06268e+01 -2.62052e-02   6.70718e-01   4.28114e-01
Si    2.66970e+00   7.98812e+00   2.42825e-02 -9.05014e-03   2.02309e-01  -9.27619e-01
Si    1.06429e+01   7.99958e+00   2.64074e+00  1.04943e-01  -2.81660e-01   1.47177e-01
Si    2.65902e+00   5.33742e+00   2.67906e+00 -1.83922e-01  -4.01564e-01  -6.80089e-01
Si    1.35162e+00   6.67854e+00   1.30190e+00 -5.43807e-01  -6.54944e-01   5.42913e-01
Si    3.99542e+00   9.30468e+00   1.31689e+00  1.83270e-01   7.65744e-02   4.61770e-01
Si    1.33475e+00   9.33140e+00   3.96968e+00  1.42977e-03  -8.69332e-03   3.41874e-02
Si    3.98190e+00   6.63541e+00   3.98448e+00  2.05829e-01   8.54820e-01   1.12235e-01
Si    5.32728e+00   5.33726e+00   1.06289e+01 -3.02026e-01  -1.38313e-01   4.06054e-01
Si    7.98674e+00   7.95356e+00   1.06398e+01 -1.69505e-02   2.42533e-01  -7.67673e-02
Si    5.34425e+00   7.99766e+00   2.65900e+00 -8.88915e-01  -4.40205e-01  -3.89887e-02
Si    7.98073e+00   5.33003e+00   2.67620e+00 -7.50163e-03  -1.58330e-01  -2.63613e-01
Si    6.63042e+00   6.66675e+00   1.33005e+00  4.87882e-01  -3.74023e-01   5.79020e-02
Si    9.31278e+00   9.29824e+00   1.29991e+00 -2.03076e-01   4.87752e-02   3.47457e-01
Si    6.63683e+00   9.28875e+00   3.98254e+00  5.22838e-01   2.92131e-01   3.71329e-01
Si    9.31504e+00   6.66681e+00   4.00939e+00  1.47747e-01  -1.33773e-01  -6.66230e-01
Si    1.81534e-02   1.66702e-02   5.31683e+00 -5.85064e-01  -2.74587e-01  -1.76605e-01
Si    2.64710e+00   2.67011e+00   5.34236e+00 -1.53075e-01  -4.81547e-02  -2.23212e-01
Si    1.06317e+01   2.68533e+00   7.98161e+00  3.11486e-01  -4.58696e-01   3.34809e-01
Si    2.67386e+00   1.06448e+01   7.95802e+00  5.61328e-02   1.56848e-01   3.89443e-01
Si    1.30948e+00   1.31969e+00   6.64881e+00  2.99821e-01   4.82793e-01   3.11262e-01
Si    3.96952e+00   4.00500e+00   6.66416e+00  3.77857e-01   8.47402e-02  -1.66025e-01
Si    1.34273e+00   3.98760e+00   9.34810e+00 -2.32587e-02   7.03622e-02  -1.02778e+00
Si    4.01225e+00   1.33713e+00   9.33418e+00 -1.32387e-02  -2.96050e-01  -6.32931e-01
Si    5.33589e+00   1.06201e+01   5.33306e+00 -3.29004e-01   4.44204e-01  -5.07358e-01
Si    7.98766e+00   2.63550e+00   5.33415e+00 -2.46184e-01   7.49320e-01  -1.02623e-01
Si    5.32859e+00   2.69288e+00   7.98988e+00 -7.54437e-02  -3.52215e-01  -1.22350e-01
Si    7.97654e+00   1.06402e+01   7.99364e+00 -3.22722e-01   3.02938e-01  -2.29590e-01
Si    6.64864e+00   1.34548e+00   6.62597e+00 -9.05790e-02  -3.72960e-01   8.30665e-01
Si    9.29390e+00   3.98547e+00   6.67026e+00  1.61656e-02  -2.26176e-02  -4.06648e-01
Si    6.64645e+00   4.01327e+00   9.32679e+00  2.34985e-01  -1.74868e-01  -1.33638e-01
Si    9.31397e+00   1.31060e+00   9.31042e+00 -1.20634e-01   6.02567e-01  -6.21160e-02
Si    1.06082e+01   5.29816e+00   5.30330e+00  4.85117e-01   5.49520e-01   7.49857e-01
Si    2.64464e+00   7.99706e+00   5.32426e+00  4.21060e-01  -4.49530e-02  -5.04125e-01
Si    3.93516e-03   7.96686e+00   7.99922e+00  2.04664e-01   7.75885e-01  -7.42400e-01
Si    2.66647e+00   5.34197e+00   7.98929e+00 -4.45970e-01  -2.93040e-01   5.30965e-02
Si    1.34992e+00   6.67303e+00   6.64107e+00 -7.37241e-01  -6.44742e-01   7.53921e-04
Si    4.00309e+00   9.30152e+00   6.64105e+00 -3.07004e-02  -6.06829e-02   3.00819e-01
Si    1.32941e+00   9.32653e+00   9.30664e+00  2.80335e-01  -2.79683e-01   7.82725e-02
Si    3.98003e+00   6.64129e+00   9.31693e+00  2.20518e-01   5.30291e-01   8.54588e-02
Si    5.31433e+00   5.33070e+00   5.30444e+00 -2.14019e-01  -3.06705e-01   3.84430e-01
Si    7.99459e+00   7.97396e+00   5.30914e+00 -4.19184e-01   2.92935e-01   4.42476e-01
Si    5.33497e+00   7.98472e+00   8.00170e+00 -2.29556e-01  -5.02234e-03  -4.98087e-02
Si    7.97245e+00   5.30894e+00   7.97630e+00  9.27486e-02   6.22277e-01   2.09092e-01
Si    6.63310e+00   6.65138e+00   6.64294e+00  3.66938e-01   3.45827e-02   5.73800e-02
Si    9.29889e+00   9.33536e+00   6.65534e+00  4.80090e-01  -4.36237e-01  -5.34421e-02
Si    6.65743e+00   9.32271e+00   9.34288e+00  1.22547e-01  -3.84017e-01  -3.17614e-01
Si    9.34700e+00   6.67147e+00   9.29571e+00 -6.77155e-01  -9.38287e-01   2.62070e-01
