8
Lattice="5.789446 0 0 0 5.789446 0 0 0 5.789446 " PBC="1 1 1" Properties=species:S:1:pos:R:3:force:R:3 Energy="-32.9341580597"
Si    0.00000e+00   0.00000e+00   0.00000e+00  1.11022e-15   3.95075e-15   3.95075e-15
Si    2.89472e+00   2.89472e+00   0.00000e+00  2.33147e-15   2.55351e-15   2.44249e-15
Si    0.00000e+00   2.89472e+00   2.89472e+00  1.99840e-15   2.56030e-15   2.38189e-15
Si    2.89472e+00   0.00000e+00   2.89472e+00  2.22045e-15   2.66454e-15   2.22045e-15
Si    1.44736e+00   1.44736e+00   1.44736e+00  0.00000e+00   2.41922e-16   1.45444e-16
Si    4.34208e+00   4.34208e+00   1.44736e+00 -5.06097e-15  -5.30677e-15   1.87622e-16
Si    1.44736e+00   4.34208e+00   4.34208e+00  1.55431e-15  -6.55032e-15  -6.55032e-15
Si    4.34208e+00   1.44736e+00   4.34208e+00 -5.03188e-15   1.73078e-16  -5.18120e-15
