64
Lattice="10.775104 0 0 0 10.775104 0 0 0 10.775104 " PBC="1 1 1" Properties=species:S:1:pos:R:3:force:R:3 Energy="-277.301562272"
Si    1.52916e-03   7.26424e-04   1.07738e+01 -2.27600e-02   1.69996e-02   2.31316e-02
Si    2.69517e+00   2.69277e+00   2.35564e-03 -4.86188e-02   2.09281e-02  -2.00038e-02
Si    1.07726e+01   2.69346e+00   2.69600e+00  4.69290e-02  -2.09274e-02  -1.10046e-02
Si    2.69353e+00   4.27467e-05   2.69154e+00  3.79856e-03  -2.67248e-02   1.80076e-02
Si    1.34649e+00   1.34821e+00   1.34887e+00 -1.58457e-02  -9.67779e-03  -1.98520e-02
Si    4.03971e+00   4.03853e+00   1.34852e+00 -5.92269e-04   5.33926e-02  -1.98187e-02
Si    1.34632e+00   4.04135e+00   4.03816e+00 -1.18810e-02  -4.88071e-02   7.21080e-02
Si    4.03959e+00   1.34445e+00   4.03998e+00 -2.40129e-03   2.77591e-02   1.07062e-02
Si    5.38627e+00   2.64274e-03   1.07745e+01  2.57691e-03  -7.24010e-02  -8.03300e-03
Si    8.08029e+00   2.69227e+00   1.07751e+01 -2.57616e-02   5.11256e-02   4.02552e-02
Si    5.38517e+00   2.69264e+00   2.69235e+00  2.03965e-02  -8.22202e-03   3.71829e-02
Si    8.08382e+00   6.23199e-04   2.69573e+00 -9.02180e-02  -3.92356e-02  -3.08339e-02
Si    6.73223e+00   1.34500e+00   1.34782e+00  4.37867e-02   1.90179e-02   4.65985e-03
Si    9.43080e+00   4.03810e+00   1.34908e+00 -6.64664e-02   4.52609e-02  -4.72283e-02
Si    6.73206e+00   4.04204e+00   4.03832e+00  2.47852e-03   1.75116e-03   7.71707e-03
Si    9.42690e+00   1.34511e+00   4.03902e+00  2.34312e-02   3.83928e-02   7.89241e-02
Si    1.07730e+01   5.38766e+00   1.07724e+01  1.53299e-02   5.07261e-03   4.36563e-02
Si    2.69534e+00   8.07938e+00   1.07730e+01 -4.88711e-02   3.93547e-02   4.31684e-02
Si    1.07747e+01   8.07981e+00   2.69559e+00 -4.26173e-02   4.66350e-02  -1.89029e-02
Si    2.69111e+00   5.38566e+00   2.69484e+00  4.93247e-02   6.38772e-02  -3.12824e-02
Si    1.34499e+00   6.73644e+00   1.34696e+00  1.95396e-02  -5.44212e-02  -2.47509e-02
Si    4.04026e+00   9.42562e+00   1.34686e+00  1.90666e-02   3.05954e-02  -2.28708e-02
Si    1.34929e+00   9.42739e+00   4.04016e+00 -2.61054e-02   1.03093e-02   5.80367e-03
Si    4.04244e+00   6.73559e+00   4.04059e+00 -3.61060e-02  -5.63355e-02  -3.08686e-02
Si    5.38611e+00   5.38848e+00   4.23756e-04  7.03353e-03  -2.72943e-02   1.15790e-02
Si    8.08105e+00   8.08174e+00   1.07741e+01  1.80652e-03   6.87196e-03  -9.41049e-03
Si    5.38837e+00   8.07912e+00   2.69306e+00 -1.79570e-03   3.01578e-02  -2.74376e-03
Si    8.08172e+00   5.38923e+00   2.69360e+00 -8.24952e-03  -4.98268e-02  -2.52584e-02
Si    6.73511e+00   6.73475e+00   1.34598e+00  3.46150e-04  -9.08604e-03  -7.00594e-03
Si    9.42626e+00   9.43039e+00   1.34543e+00  5.89454e-02  -3.96981e-02   2.44947e-02
Si    6.73289e+00   9.42648e+00   4.04150e+00  1.03678e-02   4.30229e-02  -1.49756e-02
Si    9.42580e+00   6.73224e+00   4.04175e+00  2.19197e-02   3.48939e-02  -1.70652e-02
Si    1.21239e-03   8.45095e-05   5.38841e+00 -1.79857e-02  -2.30950e-02  -5.25655e-02
Si    2.69276e+00   2.69151e+00   5.38871e+00 -4.37089e-03   3.01573e-02  -4.45045e-02
Si    1.20411e-03   2.69121e+00   8.07930e+00 -5.50251e-02   3.45541e-02   3.98841e-02
Si    2.69350e+00   1.07741e+01   8.08125e+00  1.03742e-02   3.88483e-02  -8.98423e-03
Si    1.34424e+00   1.34645e+00   6.73406e+00  6.10666e-02  -2.85118e-02   1.20556e-02
Si    4.04221e+00   4.03926e+00   6.73286e+00 -1.80256e-02   2.79510e-03   2.01687e-02
Si    1.34464e+00   4.03804e+00   9.42910e+00  5.21375e-02   1.54224e-02  -1.63249e-02
Si    4.03978e+00   1.34927e+00   9.42873e+00  9.00340e-03  -2.58945e-02  -3.45527e-02
Si    5.38675e+00   1.52856e-03   5.38943e+00 -9.39006e-03  -5.89269e-02  -5.81148e-02
Si    8.07931e+00   2.69565e+00   5.38580e+00 -3.07313e-03  -4.26289e-02  -5.76692e-04
Si    5.39013e+00   2.69186e+00   8.07924e+00 -3.96616e-02   2.20502e-02   1.98635e-02
Si    8.08172e+00   2.68308e-03   8.07864e+00  2.18584e-02  -3.95507e-02   1.67961e-02
Si    6.73217e+00   1.34421e+00   6.73213e+00  5.99520e-02   6.37932e-02   2.53372e-03
Si    9.42735e+00   4.03968e+00   6.73459e+00  1.78123e-02  -1.05371e-02  -1.93609e-02
Si    6.73337e+00   4.04179e+00   9.42682e+00  2.01838e-02  -1.35494e-02   1.98786e-02
Si    9.42634e+00   1.34957e+00   9.43025e+00  4.05208e-02  -4.63053e-02  -5.39440e-02
Si    1.07728e+01   5.38639e+00   5.38548e+00  3.29547e-02   4.92112e-03   4.74873e-02
Si    2.69551e+00   8.07919e+00   5.38555e+00 -1.73963e-02   2.49347e-02   7.22280e-02
Si    1.07728e+01   8.08243e+00   8.08123e+00  5.30099e-02   1.50070e-02   9.18223e-03
Si    2.69468e+00   5.38657e+00   8.08147e+00 -1.13080e-02  -8.47866e-03   2.19368e-02
Si    1.34462e+00   6.73430e+00   6.73713e+00  2.20430e-02  -1.16576e-02  -6.16602e-02
Si    4.04276e+00   9.42831e+00   6.73544e+00 -3.71166e-02  -1.71171e-02  -1.63666e-02
Si    1.34815e+00   9.42903e+00   9.42796e+00 -1.75520e-02  -3.44659e-02  -4.85282e-03
Si    4.04093e+00   6.73626e+00   9.42986e+00  1.98446e-02  -3.53200e-02  -5.97153e-02
Si    5.38684e+00   5.38930e+00   5.38802e+00  5.64787e-03  -2.50615e-02  -1.60959e-02
Si    8.07876e+00   8.07900e+00   5.38620e+00  2.40518e-02   2.15316e-02   3.50239e-02
Si    5.38986e+00   8.08360e+00   8.08289e+00 -4.09290e-02  -3.29936e-02  -7.83809e-03
Si    8.08272e+00   5.38726e+00   8.08027e+00 -3.52162e-02   2.07784e-02   1.58375e-03
Si    6.73193e+00   6.73505e+00   6.73508e+00  3.87791e-02  -1.41141e-02   1.04869e-02
Si    9.42969e+00   9.42665e+00   6.73260e+00 -5.63033e-02   2.34895e-02  -4.65562e-03
Si    6.73566e+00   9.42888e+00   9.42597e+00  1.67898e-03   5.24973e-02   4.14559e-02
Si    9.42833e+00   6.73647e+00   9.42556e+00 -2.63526e-02  -2.53331e-02   3.00624e-02
