64
Lattice="10.449244 0 0 0 10.449244 0 0 0 10.449244 " PBC="1 1 1" Properties=species:S:1:pos:R:3:force:R:3 Energy="-271.816898011"
Si    1.04429e+01   1.04446e+01   1.04446e+01  1.88370e-01   8.50632e-02   5.93366e-02
Si    2.61928e+00   2.61623e+00   1.04471e+01 -1.58097e-01   2.15321e-02   7.51419e-02
Si    3.33256e-03   2.60507e+00   2.60916e+00 -5.24524e-02   7.90318e-02  -8.75020e-02
Si    2.61018e+00   1.04447e+01   2.61882e+00  6.31292e-02   7.86475e-02  -8.95072e-02
Si    1.30930e+00   1.30427e+00   1.30165e+00  5.06283e-03  -6.85084e-02  -2.90198e-02
Si    3.91518e+00   3.92553e+00   1.30711e+00  1.61031e-01  -2.01194e-01   7.87240e-03
Si    1.29902e+00   3.91454e+00   3.91122e+00  1.54593e-01   2.60304e-03   1.38561e-01
Si    3.91768e+00   1.30445e+00   3.92693e+00 -1.61175e-02  -6.80142e-02  -6.50970e-02
Si    5.23165e+00   1.38572e-03   4.44540e-03 -1.87300e-01  -1.58704e-02  -2.04341e-01
Si    7.84591e+00   2.61095e+00   4.62028e-03 -1.36569e-01   4.29003e-02  -1.46830e-01
Si    5.21989e+00   2.60864e+00   2.61902e+00  5.81118e-02   1.08443e-01  -9.13519e-02
Si    7.83556e+00   1.04420e+01   2.61278e+00 -2.29618e-02   1.88490e-01  -1.25339e-01
Si    6.52485e+00   1.30596e+00   1.29792e+00  1.92631e-01   5.01620e-02   2.89655e-01
Si    9.14672e+00   3.91937e+00   1.30787e+00 -6.45048e-02   3.67974e-03   9.15865e-02
Si    6.53635e+00   3.91792e+00   3.92452e+00 -1.58052e-01   4.74574e-02  -1.31050e-01
Si    9.14015e+00   1.31264e+00   3.91182e+00  3.80883e-02  -1.75848e-01   6.11703e-02
Si    1.04400e+01   5.23024e+00   3.21728e-03  2.49926e-01  -1.13412e-01  -1.63204e-01
Si    2.60841e+00   7.83653e+00   1.04419e+01  1.74290e-01   7.32867e-02   1.38250e-01
Si    7.71027e-03   7.83226e+00   2.61136e+00 -1.37498e-01   1.48559e-01  -7.12640e-02
Si    2.61366e+00   5.22067e+00   2.60758e+00 -5.98028e-02   1.40070e-01   1.73508e-01
Si    1.30924e+00   6.53036e+00   1.30507e+00 -6.99150e-03  -3.63876e-02  -5.24051e-02
Si    3.92486e+00   9.14608e+00   1.30592e+00 -1.68251e-01  -9.89671e-02  -4.14332e-02
Si    1.29926e+00   9.14532e+00   3.92075e+00  1.03966e-01  -9.91715e-02   5.74715e-02
Si    3.92307e+00   6.53309e+00   3.91833e+00 -6.34074e-02  -1.32324e-01  -2.81943e-02
Si    5.22964e+00   5.21944e+00   2.49497e-03 -1.39717e-01   1.46033e-01  -4.73970e-03
Si    7.83935e+00   7.83181e+00   1.04426e+01 -1.79469e-01   7.49072e-02   1.35934e-01
Si    5.22626e+00   7.83260e+00   2.60518e+00  3.85987e-02   1.11487e-01   1.58215e-01
Si    7.82985e+00   5.23010e+00   2.60741e+00  1.99735e-01  -1.91539e-01   1.71845e-01
Si    6.53021e+00   6.52231e+00   1.31282e+00  1.40444e-02   1.97225e-01  -2.93782e-01
Si    9.14249e+00   9.14237e+00   1.30089e+00  2.65442e-02  -1.48192e-01   1.00500e-01
Si    6.53160e+00   9.14507e+00   3.91946e+00  2.62664e-02  -2.49047e-01  -7.10810e-02
Si    9.14063e+00   6.53703e+00   3.91245e+00  7.62554e-02  -1.98852e-01   1.39204e-01
Si    1.04483e+01   4.75613e-03   5.22548e+00 -9.85236e-02   1.03442e-02  -4.47903e-02
Si    2.61028e+00   2.60882e+00   5.22781e+00 -7.00442e-02   9.59637e-02  -2.10706e-02
Si    5.78310e-03   2.61239e+00   7.84166e+00 -3.44175e-02  -7.93500e-02  -6.40051e-02
Si    2.60713e+00   1.04450e+01   7.84058e+00  1.92069e-01   1.27864e-01  -1.05909e-01
Si    1.30562e+00   1.30145e+00   6.53518e+00  3.60726e-03   6.58624e-02  -1.70658e-02
Si    3.90965e+00   3.92599e+00   6.53306e+00  1.70194e-01  -2.91609e-01  -4.35531e-02
Si    1.31158e+00   3.91750e+00   9.13548e+00 -1.45794e-01   1.10762e-01   2.70412e-01
Si    3.91092e+00   1.30588e+00   9.14848e+00  2.44435e-01  -4.47443e-02  -1.22437e-01
Si    5.23179e+00   1.04435e+01   5.21933e+00 -6.97655e-02   1.64105e-01   1.64135e-01
Si    7.84139e+00   2.61636e+00   5.21982e+00  1.18088e-02  -8.02189e-02   2.03350e-01
Si    5.22975e+00   2.61433e+00   7.83791e+00 -2.05025e-01  -3.09086e-02   1.26035e-03
Si    7.84268e+00   1.04415e+01   7.83413e+00  4.02370e-03   1.53073e-01   2.39440e-02
Si    6.53602e+00   1.30362e+00   6.53376e+00  1.25897e-02   2.61975e-02  -1.22428e-01
Si    9.14839e+00   3.91578e+00   6.53788e+00 -1.40214e-01  -1.48212e-03   5.65725e-04
Si    6.52833e+00   3.92268e+00   9.14583e+00  1.49497e-01  -1.94724e-01   6.34283e-02
Si    9.14789e+00   1.30376e+00   9.14076e+00 -9.35734e-02   2.23062e-02  -1.04742e-02
Si    1.04485e+01   5.21763e+00   5.23086e+00 -2.10401e-02   2.08364e-01  -1.48218e-01
Si    2.61339e+00   7.83385e+00   5.22536e+00 -5.66538e-02   9.34604e-02   2.69625e-02
Si    1.04463e+01   7.82943e+00   7.84234e+00  1.29331e-01   2.79438e-01  -3.74491e-02
Si    2.60724e+00   5.21822e+00   7.82751e+00  1.17627e-01   2.49755e-01   2.65739e-01
Si    1.30508e+00   6.53170e+00   6.54037e+00 -3.14527e-02  -5.08340e-02  -2.20228e-01
Si    3.92107e+00   9.14776e+00   6.52982e+00 -4.12687e-02  -8.52266e-02  -5.07423e-03
Si    1.31309e+00   9.15020e+00   9.14112e+00 -2.81112e-01  -2.26123e-01   1.84218e-02
Si    3.92214e+00   6.53164e+00   9.14149e+00 -6.09067e-02  -1.44493e-01  -6.67459e-02
Si    5.22210e+00   5.21964e+00   5.23127e+00  1.85050e-02   6.90763e-02  -1.44224e-01
Si    7.83681e+00   7.83265e+00   5.22891e+00  2.50778e-03   1.17066e-01  -1.15407e-01
Si    5.22808e+00   7.83636e+00   7.83219e+00 -2.74345e-02   5.63716e-02   3.42485e-02
Si    7.83069e+00   5.22343e+00   7.84067e+00  1.25826e-01   5.39282e-02  -8.00506e-02
Si    6.52965e+00   6.52871e+00   6.52594e+00  7.74836e-03  -4.46633e-02   1.07267e-01
Si    9.14591e+00   9.14107e+00   6.52958e+00  4.72208e-02  -7.87044e-02  -9.89832e-04
Si    6.53175e+00   9.14906e+00   9.13847e+00  1.37782e-02  -1.60657e-01   6.99755e-02
Si    9.14288e+00   6.53563e+00   9.14061e+00 -9.29950e-02  -1.92451e-01   1.83013e-02
