64
Lattice="11.122688 0 0 0 11.122688 0 0 0 11.122688 " PBC="1 1 1" Properties=species:S:1:pos:R:3:force:R:3 Energy="-275.528055239"
Si    1.11201e+01   1.11226e+01   1.92470e-03  3.81894e-02   6.59608e-03   2.69262e-02
Si    2.78018e+00   2.78140e+00   1.11215e+01  3.98621e-02  -1.46522e-02   1.36233e-02
Si    2.38027e-04   2.77916e+00   2.77923e+00 -2.77533e-02   1.76347e-02   2.27692e-02
Si    2.78319e+00   8.10902e-04   2.77799e+00 -1.52024e-02   1.25612e-02   6.85543e-02
Si    1.39310e+00   1.39164e+00   1.39157e+00 -3.74831e-02  -2.63430e-02  -4.12674e-02
Si    4.17051e+00   4.16936e+00   1.39291e+00 -2.24235e-02   3.50421e-02  -1.84146e-02
Si    1.38880e+00   4.16849e+00   4.17314e+00  1.39491e-02   2.45469e-02  -3.35613e-02
Si    4.17317e+00   1.39291e+00   4.17163e+00 -6.00217e-02  -3.79937e-02  -5.84128e-03
Si    5.56405e+00   1.11221e+01   1.11208e+01 -5.18591e-02   2.25938e-02   2.84427e-02
Si    8.34250e+00   2.78003e+00   1.11215e+01 -1.62036e-02   9.58646e-03   1.01153e-02
Si    5.55866e+00   2.78049e+00   2.78295e+00  4.04413e-02   1.46472e-02  -2.37297e-02
Si    8.33981e+00   1.11223e+01   2.77862e+00  8.68914e-03   1.33913e-02   4.68688e-02
Si    6.94952e+00   1.39272e+00   1.39100e+00  1.31484e-02  -1.74796e-02  -1.38163e-02
Si    9.73108e+00   4.17231e+00   1.38861e+00  3.33891e-02  -1.02652e-02   1.48187e-02
Si    6.95047e+00   4.16985e+00   4.17111e+00 -6.60355e-04   4.05892e-02   1.53249e-02
Si    9.73172e+00   1.38885e+00   4.17271e+00 -8.27887e-03   1.14118e-02  -4.13446e-02
Si    1.15500e-03   5.56329e+00   1.11219e+01 -1.83617e-02  -3.78692e-02  -3.18758e-02
Si    2.77976e+00   8.34441e+00   1.52383e-03  8.84764e-03  -2.32717e-02  -1.74424e-02
Si    5.05168e-04   8.34417e+00   2.78167e+00 -3.00867e-02  -6.38883e-02   4.13632e-03
Si    2.77799e+00   5.56301e+00   2.78158e+00  5.62374e-03  -4.22375e-02  -9.19071e-03
Si    1.38922e+00   6.95183e+00   1.38864e+00  4.90663e-03   2.90625e-02   3.37437e-02
Si    4.16927e+00   9.73380e+00   1.39057e+00  5.96847e-02  -3.25510e-03  -2.63535e-02
Si    1.39238e+00   9.73051e+00   4.16978e+00  5.80111e-03   5.33865e-02   1.86565e-04
Si    4.17108e+00   6.95179e+00   4.16845e+00 -2.03518e-02   3.08025e-02   3.75677e-02
Si    5.56264e+00   5.56006e+00   2.27067e-03 -1.07432e-02   7.89551e-03  -1.10408e-02
Si    8.34413e+00   8.34116e+00   1.11218e+01 -3.18413e-02   8.77781e-03   3.92913e-02
Si    5.56222e+00   8.34364e+00   2.78007e+00 -2.90732e-04  -8.35352e-03   2.63339e-03
Si    8.34463e+00   5.56249e+00   2.78264e+00 -5.10820e-02  -4.09854e-02  -1.77509e-02
Si    6.95402e+00   6.95173e+00   1.39170e+00 -6.27298e-03   1.75845e-03  -8.83377e-03
Si    9.73031e+00   9.73137e+00   1.39271e+00  1.75518e-02   1.06634e-02  -2.83124e-02
Si    6.95446e+00   9.73009e+00   4.17335e+00 -4.29391e-02   3.39406e-02  -2.80768e-02
Si    9.72977e+00   6.94961e+00   4.17313e+00  6.29897e-02   4.71344e-02   7.43760e-04
Si    1.81259e-03   1.11226e+01   5.55958e+00 -2.84909e-04  -1.91737e-02   1.93240e-02
Si    2.78163e+00   2.78192e+00   5.56232e+00 -2.35684e-02  -3.50035e-02   1.37357e-02
Si    2.54990e-03   2.77821e+00   8.34443e+00 -6.46997e-02   6.14874e-02  -3.78909e-02
Si    2.77891e+00   1.11202e+01   8.34416e+00  3.29483e-02   3.18374e-02  -2.35105e-02
Si    1.38824e+00   1.39085e+00   6.95426e+00  5.49749e-02  -2.71438e-02  -3.93494e-02
Si    4.17020e+00   4.17093e+00   6.95221e+00 -5.81838e-03   2.54120e-02   1.84894e-02
Si    1.39261e+00   4.16873e+00   9.73074e+00 -4.33814e-02   4.12152e-02   3.98049e-02
Si    4.17305e+00   1.39264e+00   9.72990e+00 -3.25483e-02  -5.14274e-02   3.26900e-02
Si    5.55974e+00   4.90653e-04   5.55919e+00  3.87230e-02  -1.60155e-02   3.57317e-02
Si    8.34036e+00   2.78021e+00   5.56222e+00  1.09245e-02   8.90601e-03  -1.00290e-02
Si    5.56096e+00   2.77970e+00   8.34059e+00  1.81294e-03   3.41173e-02  -3.01321e-03
Si    8.34473e+00   6.25335e-04   8.34083e+00 -2.91297e-02  -2.69962e-02   1.75660e-02
Si    6.95014e+00   1.39202e+00   6.95172e+00  1.41715e-02  -4.99508e-02  -9.62749e-03
Si    9.72961e+00   4.17257e+00   6.95182e+00  5.72792e-02  -5.53150e-02   2.46199e-02
Si    6.95077e+00   4.16911e+00   9.73112e+00  2.34489e-02   3.06908e-02  -2.44790e-03
Si    9.73466e+00   1.39071e+00   9.73362e+00 -2.70099e-02  -1.51099e-02  -1.14939e-02
Si    2.17064e-04   5.55949e+00   5.56231e+00 -2.13190e-02   1.49156e-02  -5.39688e-03
Si    2.77896e+00   8.34223e+00   5.56276e+00  4.89531e-02  -1.77266e-02  -2.87101e-02
Si    1.11220e+01   8.34042e+00   8.34181e+00  2.45016e-02   2.23077e-02   1.32120e-02
Si    2.77862e+00   5.56187e+00   8.34418e+00  4.58297e-02   1.69939e-02  -2.82756e-02
Si    1.38965e+00   6.95201e+00   6.95053e+00 -3.25598e-03  -2.15378e-02   2.80816e-02
Si    4.17275e+00   9.73051e+00   6.95249e+00 -3.52225e-02   2.96212e-02  -9.14434e-03
Si    1.38878e+00   9.73317e+00   9.73462e+00 -2.10981e-02  -2.21198e-02  -1.07518e-02
Si    4.17285e+00   6.95416e+00   9.73354e+00 -2.76422e-02  -3.32566e-02   1.24772e-02
Si    5.55864e+00   5.56351e+00   5.56279e+00  2.45355e-02  -3.85339e-02  -3.09590e-02
Si    8.33976e+00   8.33987e+00   5.56395e+00  3.73759e-02  -1.84571e-03  -8.46868e-03
Si    5.56227e+00   8.34122e+00   8.34128e+00  7.70305e-03   5.18744e-03   2.26486e-02
Si    8.34307e+00   5.56335e+00   8.34081e+00 -3.78495e-02  -2.38721e-02   3.76572e-02
Si    6.95069e+00   6.95051e+00   6.95235e+00 -4.03038e-03   5.21876e-03   1.97165e-03
Si    9.73512e+00   9.72960e+00   6.94993e+00 -2.68335e-02   3.23315e-02   6.07014e-03
Si    6.95154e+00   9.72985e+00   9.73477e+00  4.39779e-02   2.87819e-02  -6.44133e-02
Si    9.73083e+00   6.95393e+00   9.73233e+00  3.53133e-02  -3.94237e-02  -9.49184e-03
