64
Lattice="10.123384 0 0 0 10.123384 0 0 0 10.123384 " PBC="1 1 1" Properties=species:S:1:pos:R:3:force:R:3 Energy="-257.703809303"
Si    1.01194e+01   1.23223e-02   1.08776e-02  1.29722e-01  -5.68903e-01  -2.03877e-01
Si    2.54694e+00   2.51257e+00   5.87066e-03 -2.75008e-01   2.11231e-01  -1.68506e-01
Si    1.01220e+01   2.53108e+00   2.51903e+00 -1.83751e-01   1.83295e-01   2.84950e-01
Si    2.53380e+00   1.59247e-02   2.51184e+00  1.44753e-01  -3.57862e-01   5.55657e-01
Si    1.28291e+00   1.27476e+00   1.27329e+00 -4.31094e-01  -1.68533e-04  -2.89124e-01
Si    3.77841e+00   3.81229e+00   1.24707e+00  7.06188e-01  -4.96268e-02  -4.06416e-02
Si    1.26781e+00   3.79203e+00   3.80907e+00  1.28910e-01  -1.60417e-02  -7.09565e-01
Si    3.80913e+00   1.25142e+00   3.79958e+00 -4.45515e-01   5.29807e-01  -2.63409e-01
Si    5.04594e+00   1.00963e+01   1.00997e+01  1.40481e-01   5.77145e-01   5.89715e-01
Si    7.58200e+00   2.52373e+00   1.01156e+01  1.85043e-01   6.31481e-01  -3.53511e-01
Si    5.05204e+00   2.53507e+00   2.51874e+00 -2.88158e-01   5.26035e-02  -8.84826e-02
Si    7.58823e+00   8.12711e-04   2.55272e+00 -1.55089e-01   3.33857e-01  -5.53344e-01
Si    6.32395e+00   1.29065e+00   1.24293e+00 -2.83924e-01  -9.98168e-01   3.33263e-01
Si    8.84295e+00   3.81603e+00   1.25757e+00  4.49537e-01  -7.77348e-01  -3.90680e-01
Si    6.30260e+00   3.77822e+00   3.80680e+00  3.88706e-01   2.32745e-01  -3.82488e-01
Si    8.86014e+00   1.25797e+00   3.81231e+00 -3.88601e-02   3.14824e-01  -6.54495e-01
Si    3.99952e-03   5.04226e+00   1.00976e+01  1.08673e-01   4.99584e-01   6.99251e-01
Si    2.51948e+00   7.59727e+00   4.92817e-04  2.56873e-01   8.46994e-02   1.87712e-01
Si    1.32671e-02   7.60979e+00   2.55524e+00 -1.72811e-01  -5.14554e-01  -7.52798e-01
Si    2.55217e+00   5.06490e+00   2.53208e+00 -3.32050e-01  -1.39156e-01   3.53527e-01
Si    1.28231e+00   6.32320e+00   1.27504e+00 -6.16069e-01  -3.92763e-02  -1.59799e-01
Si    3.79492e+00   8.85247e+00   1.28399e+00 -2.12603e-02  -1.60286e-01  -3.43480e-01
Si    1.28608e+00   8.84208e+00   3.78416e+00 -4.77512e-01   1.28636e+00   3.85059e-01
Si    3.81901e+00   6.31404e+00   3.80182e+00 -9.66063e-01   5.35046e-01   9.17695e-02
Si    5.08484e+00   5.08194e+00   1.01106e+01 -4.01738e-01   1.49071e-01   3.15899e-01
Si    7.57658e+00   7.57428e+00   1.75489e-02  6.88157e-01   3.53740e-01  -7.41493e-01
Si    5.05532e+00   7.56781e+00   2.53781e+00  5.42864e-01   5.31355e-01  -5.57428e-03
Si    7.59475e+00   5.03816e+00   2.51107e+00 -5.61487e-01   3.14805e-01   6.14859e-01
Si    6.35585e+00   6.34366e+00   1.26050e+00 -6.90483e-01  -6.65059e-01   5.04932e-01
Si    8.83501e+00   8.84032e+00   1.27671e+00  4.03058e-01   3.29294e-01   4.45688e-02
Si    6.32837e+00   8.86893e+00   3.80776e+00  2.27927e-02  -8.06061e-01  -2.08152e-01
Si    8.86056e+00   6.31714e+00   3.76873e+00  9.79455e-02  -2.49688e-01   5.02318e-01
Si    1.01000e+01   1.97733e-02   5.06683e+00  8.28195e-01  -8.58228e-01  -3.84586e-01
Si    2.50948e+00   2.52505e+00   5.06296e+00  8.87516e-01   1.53825e-01   1.62751e-01
Si    1.01224e+01   2.55737e+00   7.58090e+00 -1.56337e-01  -5.07529e-01   5.38855e-01
Si    2.55873e+00   1.01021e+01   7.60167e+00 -1.06601e+00   5.81189e-01  -7.17427e-01
Si    1.24099e+00   1.27787e+00   6.31024e+00  5.36490e-01  -5.05455e-01   8.09362e-01
Si    3.81007e+00   3.81078e+00   6.34416e+00 -6.96188e-01  -2.96801e-01  -5.24059e-01
Si    1.27547e+00   3.78773e+00   8.87290e+00  1.04294e-01  -4.58341e-01  -1.20886e-01
Si    3.77698e+00   1.24950e+00   8.85006e+00  4.89280e-01   1.21986e-01   1.93796e-01
Si    5.08633e+00   1.95925e-02   5.03709e+00 -1.09384e-01  -1.15464e-01   9.43617e-01
Si    7.59005e+00   2.51254e+00   5.04949e+00  3.71633e-01   7.81504e-01   4.20561e-01
Si    5.03664e+00   2.53028e+00   7.59332e+00  4.65798e-01  -3.74145e-02   2.00431e-01
Si    7.59485e+00   2.11958e-02   7.61599e+00 -2.16332e-01  -7.41760e-01  -7.59251e-01
Si    6.34486e+00   1.29002e+00   6.33345e+00 -4.43478e-01  -3.80040e-01   1.04036e-01
Si    8.86408e+00   3.81759e+00   6.33800e+00 -3.97635e-01  -4.65741e-01  -6.35940e-01
Si    6.31878e+00   3.81892e+00   8.84269e+00  1.25245e-01  -6.07241e-01  -7.71811e-03
Si    8.83592e+00   1.24886e+00   8.84898e+00  8.65508e-01   8.72853e-01   2.84725e-01
Si    1.65191e-02   5.04270e+00   5.06090e+00 -4.62857e-01   5.22405e-01  -1.19198e-01
Si    2.50424e+00   7.60067e+00   5.06194e+00  7.11971e-01  -6.56122e-01   1.37127e-01
Si    6.41961e-03   7.56736e+00   7.59152e+00 -2.43551e-01   4.97038e-02   1.53361e-01
Si    2.53287e+00   5.04605e+00   7.62011e+00  5.59078e-02   3.88472e-01  -1.94312e-01
Si    1.25867e+00   6.30841e+00   6.33863e+00  3.66707e-01  -9.72250e-02  -1.21001e-01
Si    3.79068e+00   8.87279e+00   6.31292e+00  4.86575e-01  -2.37944e-01  -3.80702e-01
Si    1.27421e+00   8.83958e+00   8.83354e+00 -4.31067e-01   4.13534e-01   5.55349e-01
Si    3.79256e+00   6.34685e+00   8.86037e+00 -1.13176e-01  -4.23544e-01   1.66596e-01
Si    5.04223e+00   5.06280e+00   5.04462e+00  7.11583e-01  -1.29618e-01   6.62746e-01
Si    7.59447e+00   7.56818e+00   5.07015e+00  4.88214e-01   7.18703e-01  -2.80288e-01
Si    5.04175e+00   7.56522e+00   7.57082e+00  6.11131e-01   8.80491e-01   1.55192e-01
Si    7.59872e+00   5.06525e+00   7.58844e+00 -2.66592e-01   2.64092e-02  -1.03737e-01
Si    6.34040e+00   6.32417e+00   6.31508e+00 -5.30192e-01  -4.80048e-01   6.39131e-02
Si    8.88274e+00   8.86189e+00   6.34257e+00 -7.06483e-01  -1.34948e-01   4.12789e-02
Si    6.33855e+00   8.86089e+00   8.86931e+00 -3.71190e-01  -6.85268e-01  -6.09680e-01
Si    8.84979e+00   6.30282e+00   8.85526e+00  5.15950e-02   4.98911e-01   2.11028e-01
