64
Lattice="10.3189 0 0 0 10.3189 0 0 0 10.3189 " PBC="1 1 1" Properties=species:S:1:pos:R:3:force:R:3 Energy="-267.421911049"
Si    1.03140e+01   1.03172e+01   1.03140e+01  1.41390e-01   5.26772e-02   2.16701e-01
Si    2.57077e+00   2.58287e+00   1.03162e+01  1.68846e-01  -2.92019e-02   7.53998e-02
Si    6.57592e-03   2.57987e+00   2.58542e+00 -7.64161e-02   8.86640e-02  -5.97714e-02
Si    2.57624e+00   1.03156e+01   2.57402e+00 -4.65165e-02   1.20705e-01   7.65263e-02
Si    1.28843e+00   1.29638e+00   1.28780e+00 -6.58330e-02  -1.76816e-01  -2.72637e-02
Si    3.86735e+00   3.87151e+00   1.28566e+00 -8.77587e-02  -1.32322e-01   1.58082e-01
Si    1.29612e+00   3.87087e+00   3.87444e+00 -1.86148e-01   6.82926e-02  -6.94933e-03
Si    3.86303e+00   1.28317e+00   3.87227e+00  8.38297e-02   1.75470e-01  -9.89068e-02
Si    5.15847e+00   1.03176e+01   1.03159e+01  7.17699e-02  -3.29958e-03   5.07798e-03
Si    7.74013e+00   2.57649e+00   2.47624e-04  7.27872e-02  -6.06342e-02   2.79145e-02
Si    5.16235e+00   2.58746e+00   2.58522e+00 -2.47159e-01  -2.75797e-01  -1.35586e-01
Si    7.73164e+00   1.03182e+01   2.58250e+00  1.53528e-01  -7.58922e-03  -3.78542e-03
Si    6.44769e+00   1.28455e+00   1.29417e+00 -5.48205e-02   1.61343e-01  -7.49682e-02
Si    9.03211e+00   3.87104e+00   1.28855e+00 -6.59791e-03  -1.42153e-01   5.72026e-02
Si    6.44071e+00   3.86645e+00   3.87044e+00  3.71148e-01   6.07141e-02   1.10409e-01
Si    9.03301e+00   1.28804e+00   3.86893e+00 -1.04293e-01   3.64376e-03  -3.01124e-02
Si    1.03093e+01   5.16734e+00   9.88368e-04  2.76496e-01  -1.71891e-01  -9.34760e-02
Si    2.58051e+00   7.73322e+00   1.03168e+01  1.01950e-02   2.29193e-01   1.56447e-01
Si    1.03186e+01   7.74002e+00   2.58297e+00 -4.77555e-02   1.49678e-01  -4.43122e-02
Si    2.57682e+00   5.15666e+00   2.58158e+00 -2.82050e-02   9.92092e-02  -1.73728e-01
Si    1.28210e+00   6.45687e+00   1.28943e+00  1.30107e-01  -1.73516e-01   5.49051e-02
Si    3.87250e+00   9.03450e+00   1.29341e+00 -5.13508e-02  -2.14047e-01  -1.39622e-01
Si    1.28241e+00   9.03837e+00   3.87212e+00  5.45365e-02  -1.15771e-01  -4.11938e-02
Si    3.87108e+00   6.44464e+00   3.86288e+00 -3.18488e-02   1.31982e-01   9.22230e-02
Si    5.15281e+00   5.15844e+00   9.41680e-03  1.10999e-01   9.21260e-02  -3.09135e-01
Si    7.74079e+00   7.73974e+00   2.55717e-03 -1.57320e-02  -2.29949e-03  -6.69140e-02
Si    5.16544e+00   7.74031e+00   2.57801e+00 -1.47097e-01  -1.48799e-01  -1.28246e-01
Si    7.73988e+00   5.15516e+00   2.57535e+00 -5.91134e-02   1.19403e-02   1.15763e-01
Si    6.45195e+00   6.44515e+00   1.28380e+00 -2.32116e-02   6.98423e-02   1.32257e-01
Si    9.02619e+00   9.03168e+00   1.28966e+00  1.30223e-02  -1.93009e-02   8.65440e-02
Si    6.44023e+00   9.02704e+00   3.86142e+00  1.72926e-01   3.92560e-02   2.54167e-01
Si    9.03207e+00   6.44905e+00   3.86591e+00 -1.08850e-01  -6.55628e-02  -4.46159e-02
Si    1.03115e+01   1.04196e-03   5.16305e+00  1.23977e-01   3.89179e-02  -2.90863e-02
Si    2.57877e+00   2.58543e+00   5.15895e+00  3.09024e-02  -2.00521e-01   6.18016e-02
Si    2.69788e-03   2.58102e+00   7.74241e+00  6.27796e-02  -9.80187e-02  -1.36402e-01
Si    2.58213e+00   1.03127e+01   7.73752e+00 -3.35285e-02   8.76623e-02   9.08254e-02
Si    1.29230e+00   1.28380e+00   6.44766e+00 -3.17800e-02   1.34336e-01   5.21439e-02
Si    3.87028e+00   3.87201e+00   6.44301e+00  9.60030e-02  -3.39663e-02   1.31923e-01
Si    1.29515e+00   3.86777e+00   9.02541e+00 -2.38515e-01   2.02762e-01   1.47660e-01
Si    3.86402e+00   1.29009e+00   9.03448e+00  6.95371e-02   5.38478e-02  -1.36725e-01
Si    5.15965e+00   1.64609e-03   5.16107e+00  8.75462e-03  -4.48506e-02   1.93271e-02
Si    7.74782e+00   2.57607e+00   5.16369e+00 -2.11875e-01   5.12434e-03  -1.98397e-01
Si    5.16292e+00   2.58853e+00   7.74606e+00 -4.09244e-02  -1.41820e-01  -8.04923e-02
Si    7.73423e+00   1.03154e+01   7.73318e+00  2.79146e-01   4.67965e-03   1.09345e-01
Si    6.45591e+00   1.28882e+00   6.45280e+00 -1.89100e-01   1.22964e-01  -3.58513e-02
Si    9.03109e+00   3.86179e+00   6.44375e+00  5.65674e-02   1.35438e-01   1.49148e-01
Si    6.45799e+00   3.87564e+00   9.03266e+00 -1.72032e-01  -1.96369e-02   9.48465e-02
Si    9.03767e+00   1.28492e+00   9.02774e+00 -2.78601e-01   6.10593e-02  -9.58708e-02
Si    1.03132e+01   5.16300e+00   5.15932e+00  1.41398e-01  -7.67467e-02   8.21496e-03
Si    2.57182e+00   7.73804e+00   5.15579e+00  1.51244e-01   4.69799e-02  -2.98164e-02
Si    1.05016e-04   7.73738e+00   7.74524e+00  6.35719e-02   1.13268e-01  -1.32372e-02
Si    2.58969e+00   5.15361e+00   7.74676e+00 -1.72259e-01   2.01221e-01  -2.46825e-01
Si    1.28623e+00   6.45352e+00   6.45051e+00  1.11280e-01  -2.14549e-01   1.21863e-01
Si    3.86962e+00   9.02738e+00   6.45055e+00 -4.22309e-02  -3.01964e-02  -1.65816e-01
Si    1.29081e+00   9.03166e+00   9.03601e+00  1.57696e-02  -1.04070e-01  -1.24280e-01
Si    3.86856e+00   6.45657e+00   9.02752e+00  1.62007e-01  -1.65548e-01   4.13711e-02
Si    5.16189e+00   5.16028e+00   5.15751e+00 -3.80307e-02   8.13126e-02   2.82142e-02
Si    7.74222e+00   7.73654e+00   5.15227e+00 -3.43114e-02   1.55601e-01   5.04064e-03
Si    5.15889e+00   7.73989e+00   7.73178e+00  4.36066e-02   2.95693e-02   1.50445e-01
Si    7.74134e+00   5.15365e+00   7.73581e+00  5.56455e-02   2.03877e-01  -4.88678e-02
Si    6.44962e+00   6.45747e+00   6.44611e+00  8.11929e-02  -2.11285e-01   4.70179e-03
Si    9.03606e+00   9.02669e+00   6.44807e+00 -1.98789e-01  -7.23193e-02   4.27010e-02
Si    6.45492e+00   9.02632e+00   9.02475e+00 -1.51313e-01  -1.28854e-02   4.98745e-02
Si    9.03016e+00   6.45283e+00   9.03152e+00 -1.62966e-01  -6.79416e-02  -1.08812e-01
