64
Lattice="11.491996 0 0 0 11.491996 0 0 0 11.491996 " PBC="1 1 1" Properties=species:S:1:pos:R:3:force:R:3 Energy="-266.170367294"
Si    1.14709e+01   1.14891e+01   1.14694e+01  5.04998e-02  -1.85390e-01   1.64207e-01
Si    2.87205e+00   2.88557e+00   1.14576e+01  2.82114e-02  -4.89815e-01   3.91330e-01
Si    1.14808e+01   2.86647e+00   2.85529e+00  2.52627e-01   1.36444e-01  -7.13355e-02
Si    2.87614e+00   1.04241e-02   2.85212e+00 -2.10420e-01   9.92119e-02   3.12124e-01
Si    1.41409e+00   1.42062e+00   1.41309e+00  2.21555e-01   2.52032e-01  -7.15838e-02
Si    4.31597e+00   4.28194e+00   1.41854e+00 -1.37907e-01   4.13751e-01   2.91229e-01
Si    1.42697e+00   4.28919e+00   4.31368e+00  1.44886e-01   1.54219e-01  -1.10515e-01
Si    4.30186e+00   1.42133e+00   4.32640e+00 -2.27867e-01   3.06365e-01  -2.54460e-01
Si    5.75067e+00   1.14662e+01   1.37211e-03 -1.26849e-01   4.66055e-01  -4.31722e-02
Si    8.59439e+00   2.88205e+00   1.14703e+01  2.28200e-01   5.77844e-02   3.34387e-01
Si    5.72939e+00   2.86222e+00   2.89309e+00  4.47403e-02  -1.22078e-01  -3.06667e-01
Si    8.59273e+00   1.39047e-02   2.87516e+00  4.32163e-01  -1.60060e-01   7.31339e-02
Si    7.18493e+00   1.43452e+00   1.43912e+00 -2.70995e-01   9.90981e-02  -1.15893e-01
Si    1.00639e+01   4.31353e+00   1.42789e+00 -1.73984e-01  -1.87959e-01  -6.66810e-02
Si    7.15510e+00   4.31622e+00   4.28238e+00  6.80472e-02   2.90356e-02   5.05667e-01
Si    1.00676e+01   1.47157e+00   4.29169e+00 -1.90941e-01  -5.30645e-01   2.88226e-01
Si    1.71561e-02   5.74095e+00   1.33465e-02 -4.68605e-02  -1.94239e-01  -2.93310e-01
Si    2.85250e+00   8.59017e+00   1.14590e+01  3.44208e-01   3.17179e-01   4.88352e-01
Si    9.43199e-03   8.64036e+00   2.90102e+00 -5.47210e-03  -3.32997e-01  -1.12407e-01
Si    2.89283e+00   5.76324e+00   2.90182e+00 -4.30488e-01  -5.91130e-01  -6.20224e-01
Si    1.42310e+00   7.17821e+00   1.42880e+00  2.33519e-01   1.11599e-01   3.79888e-01
Si    4.29411e+00   1.00838e+01   1.44699e+00  1.22176e-01  -8.07995e-01  -2.26191e-01
Si    1.45698e+00   1.00776e+01   4.32896e+00 -2.05964e-01  -3.58612e-02  -1.77815e-01
Si    4.29005e+00   7.16436e+00   4.30000e+00  1.51634e-01   3.46592e-01   4.96211e-01
Si    5.74227e+00   5.77057e+00   1.41950e-02 -9.81719e-03  -4.02492e-01  -8.41853e-02
Si    8.61554e+00   8.60038e+00   8.33939e-03 -1.02158e-01   2.50234e-01  -7.00180e-02
Si    5.74429e+00   8.59121e+00   2.89773e+00 -1.45231e-01   4.73128e-01  -2.13059e-01
Si    8.63464e+00   5.71651e+00   2.88662e+00 -3.74615e-01   2.19388e-01  -4.42833e-01
Si    7.16703e+00   7.17388e+00   1.43969e+00  3.46567e-01  -4.39111e-02   2.82197e-01
Si    1.00610e+01   1.00340e+01   1.45084e+00 -2.21923e-01   3.28311e-01  -7.74112e-02
Si    7.16959e+00   1.00730e+01   4.33060e+00 -6.93022e-02  -1.00338e-01  -2.73264e-01
Si    1.00363e+01   7.15556e+00   4.29394e+00  2.48550e-01   4.09076e-01   2.84875e-01
Si    1.14904e+01   1.14778e+01   5.77387e+00 -2.16661e-02   4.17375e-01  -2.33400e-01
Si    2.86285e+00   2.86380e+00   5.76140e+00  1.42407e-01   7.50433e-02  -2.00850e-01
Si    1.64747e-03   2.87839e+00   8.62483e+00 -5.88735e-02  -1.03980e-01  -6.78954e-02
Si    2.87870e+00   2.66718e-03   8.59543e+00  3.65482e-03  -1.37721e-01   2.83956e-01
Si    1.44312e+00   1.45125e+00   7.19682e+00 -2.10128e-01  -2.15542e-01  -6.75000e-02
Si    4.32722e+00   4.30948e+00   7.15400e+00 -3.65114e-01  -1.41876e-01   5.79066e-01
Si    1.45018e+00   4.27255e+00   1.00483e+01 -2.53545e-01   6.25215e-01  -4.35062e-03
Si    4.31098e+00   1.44281e+00   1.00420e+01  5.44597e-02  -2.71543e-01   1.13081e-01
Si    5.73315e+00   3.07629e-02   5.72954e+00  9.86344e-02  -5.36121e-01   3.51066e-01
Si    8.61960e+00   2.89468e+00   5.72881e+00 -7.05314e-02  -1.05988e-01   8.94068e-02
Si    5.75673e+00   2.85438e+00   8.62010e+00  1.48754e-01   2.36046e-01  -2.17187e-01
Si    8.62914e+00   2.56767e-02   8.60012e+00 -1.38217e-02  -3.66678e-01   3.43785e-01
Si    7.20278e+00   1.39762e+00   7.16912e+00 -1.88362e-01   7.08742e-01  -1.08877e-01
Si    1.00760e+01   4.31626e+00   7.17710e+00 -3.58497e-01   6.44857e-02   1.75142e-01
Si    7.17937e+00   4.33707e+00   1.00643e+01 -2.52031e-01  -2.00883e-01  -8.29448e-02
Si    1.00446e+01   1.45360e+00   1.00587e+01  1.28898e-02  -3.23748e-02  -1.68174e-01
Si    1.11572e-03   5.74106e+00   5.73811e+00  7.12835e-02   1.79909e-01   9.48962e-02
Si    2.83728e+00   8.60464e+00   5.74320e+00  5.25147e-01   1.42858e-01   6.30077e-02
Si    1.98938e-02   8.63520e+00   8.63213e+00 -3.98191e-01  -1.99680e-01   4.21958e-02
Si    2.85888e+00   5.74954e+00   8.61992e+00  3.02813e-01  -1.72526e-01  -9.54826e-02
Si    1.42824e+00   7.20555e+00   7.20056e+00 -1.08409e-01  -3.60746e-01  -1.80892e-01
Si    4.32027e+00   1.00420e+01   7.17841e+00 -2.42287e-01   1.02078e-01  -2.50193e-01
Si    1.43970e+00   1.00421e+01   1.00556e+01  5.43740e-02   3.73700e-01  -1.29881e-01
Si    4.32584e+00   7.17152e+00   1.00584e+01 -3.76828e-01  -3.65544e-02  -8.21842e-02
Si    5.71745e+00   5.75732e+00   5.76607e+00  4.42895e-01   1.54466e-02  -3.96671e-01
Si    8.60700e+00   8.63332e+00   5.73724e+00  9.90797e-02  -2.65307e-01   2.08336e-01
Si    5.71923e+00   8.60279e+00   8.62209e+00  3.62095e-01   2.14430e-01   2.57603e-02
Si    8.60547e+00   5.75713e+00   8.64112e+00  3.91408e-01  -8.06062e-02  -2.02693e-01
Si    7.17944e+00   7.18324e+00   7.20589e+00 -7.95559e-02   8.85162e-02  -2.54198e-01
Si    1.00504e+01   1.00510e+01   7.20193e+00  4.34613e-02  -2.39621e-02  -1.38540e-01
Si    7.17349e+00   1.00693e+01   1.00389e+01  2.21907e-01  -3.08996e-01   1.62736e-02
Si    1.00659e+01   7.17992e+00   1.00775e+01  5.57862e-02   3.26479e-02  -1.64858e-01
