8
Lattice="5.26807 0 0 0 5.26807 0 0 0 5.26807 " PBC="1 1 1" Properties=species:S:1:pos:R:3:force:R:3 Energy="-34.2574560143"
Si    0.00000e+00   0.00000e+00   0.00000e+00  1.11022e-16   9.13846e-29  -2.86690e-29
Si    2.63403e+00   2.63403e+00   0.00000e+00  8.62611e-17   5.54342e-17   5.55112e-17
Si    0.00000e+00   2.63403e+00   2.63403e+00  0.00000e+00   1.53878e-17  -2.47100e-17
Si    2.63403e+00   0.00000e+00   2.63403e+00  1.10920e-16   5.55112e-17  -3.00963e-36
Si    1.31702e+00   1.31702e+00   1.31702e+00  1.50672e-28   1.54134e-17   1.54133e-17
Si    3.95105e+00   3.95105e+00   1.31702e+00  1.41746e-16  -5.55112e-17   1.50377e-30
Si    1.31702e+00   3.95105e+00   3.95105e+00  8.02981e-17   5.55112e-17  -5.55112e-17
Si    3.95105e+00   1.31702e+00   3.95105e+00 -7.70828e-20  -3.07499e-17   2.52682e-29
