64
Lattice="11.796132 0 0 0 11.796132 0 0 0 11.796132 " PBC="1 1 1" Properties=species:S:1:pos:R:3:force:R:3 Energy="-254.065623566"
Si    1.41741e-03   2.77457e-02   2.70166e-02  6.38624e-02  -2.28977e-01  -2.75865e-01
Si    2.95845e+00   2.96988e+00   1.51044e-02  3.24209e-02  -4.01411e-01  -3.36463e-01
Si    6.49178e-03   2.97423e+00   2.96464e+00  2.83600e-02  -3.79506e-01  -1.30481e-01
Si    2.92404e+00   1.90250e-02   2.94816e+00  4.16113e-01  -4.65946e-01   1.22593e-01
Si    1.51029e+00   1.45781e+00   1.46968e+00 -4.47827e-01   5.63684e-01   1.46876e-01
Si    4.40745e+00   4.41635e+00   1.49770e+00  2.00605e-01   6.65798e-02  -1.84044e-01
Si    1.50318e+00   4.44285e+00   4.42006e+00 -3.12420e-01  -2.13084e-01   3.09618e-01
Si    4.41663e+00   1.47983e+00   4.41490e+00  1.02737e-01   1.82801e-01  -8.51244e-02
Si    5.86982e+00   1.17911e+01   1.17863e+01  3.78140e-01  -5.30301e-02   3.22065e-01
Si    8.82511e+00   2.92444e+00   1.17880e+01  2.43440e-01   3.62599e-01   2.26161e-01
Si    5.92372e+00   2.96583e+00   2.93139e+00 -4.10792e-01  -2.82593e-01   1.89151e-01
Si    8.86897e+00   1.01082e-02   2.96868e+00 -5.53577e-01  -2.25017e-01  -3.40976e-01
Si    7.36451e+00   1.46385e+00   1.47956e+00  6.05897e-02  -9.05354e-02  -8.87361e-02
Si    1.03127e+01   4.44524e+00   1.49528e+00  2.66972e-02  -4.51902e-01  -3.40744e-01
Si    7.34403e+00   4.41568e+00   4.42601e+00  3.64926e-01   1.45459e-01  -1.67041e-02
Si    1.02961e+01   1.44046e+00   4.41282e+00  6.43205e-01   4.29737e-01   4.24741e-01
Si    1.17798e+01   5.89480e+00   3.34340e-03  2.01984e-01   5.58551e-02  -9.13363e-02
Si    2.95495e+00   8.86368e+00   1.17120e-02  4.71556e-02  -2.10288e-01  -1.30336e-01
Si    4.69950e-03   8.86776e+00   2.97479e+00 -2.72438e-01  -1.81023e-01  -2.29545e-01
Si    2.93160e+00   5.88096e+00   2.92663e+00  2.20943e-01   3.80008e-01   2.95391e-01
Si    1.47518e+00   7.38896e+00   1.48868e+00 -1.55749e-01  -7.44533e-02  -1.63014e-01
Si    4.44373e+00   1.03056e+01   1.49300e+00 -3.18568e-01   2.92734e-01  -4.02821e-02
Si    1.47464e+00   1.02993e+01   4.42758e+00 -1.71330e-02   4.74202e-01   3.41640e-02
Si    4.40641e+00   7.36909e+00   4.44143e+00 -1.17797e-01   1.60900e-01  -4.15626e-01
Si    5.87687e+00   5.88176e+00   1.61170e-02  1.14851e-01  -2.95536e-02  -2.91616e-01
Si    8.86505e+00   8.82169e+00   1.17782e+01 -3.91416e-01   4.79077e-01   1.79750e-01
Si    5.90705e+00   8.85117e+00   2.95724e+00 -1.42092e-01  -2.49785e-01  -3.05569e-03
Si    8.85730e+00   5.88126e+00   2.94328e+00 -3.88573e-01   3.71050e-01   2.49983e-01
Si    7.35891e+00   7.37129e+00   1.45547e+00  1.92892e-01  -9.88773e-02   2.02712e-01
Si    1.03030e+01   1.03380e+01   1.47866e+00  2.62170e-01  -1.89137e-01   1.18674e-02
Si    7.34832e+00   1.03373e+01   4.40799e+00  4.51561e-01  -1.65483e-01   2.15213e-01
Si    1.03005e+01   7.39405e+00   4.44640e+00  3.66492e-01  -4.26827e-01  -2.38851e-01
Si    2.37609e-02   1.17762e+01   5.93289e+00 -2.62022e-01   1.87572e-01  -2.04050e-01
Si    2.96391e+00   2.94842e+00   5.91838e+00 -2.05711e-01  -4.43230e-02  -2.79107e-01
Si    1.48498e-02   2.95827e+00   8.81284e+00 -2.83730e-01  -4.77628e-03   2.00279e-01
Si    2.95374e+00   1.17705e+01   8.84747e+00  6.07737e-02   4.73488e-01   2.00997e-01
Si    1.49509e+00   1.48400e+00   7.40429e+00  4.78305e-03  -2.23305e-01  -3.02743e-01
Si    4.40360e+00   4.41617e+00   7.36152e+00  5.10714e-01   2.12513e-02   1.18530e-01
Si    1.46518e+00   4.39495e+00   1.02910e+01  1.56616e-01   3.60925e-01   3.54331e-01
Si    4.44951e+00   1.44725e+00   1.03204e+01 -3.68155e-01   4.35619e-01  -7.61057e-02
Si    5.89722e+00   1.78998e-02   5.87189e+00 -4.79182e-03  -6.34743e-02   4.29727e-01
Si    8.84816e+00   2.94374e+00   5.89814e+00 -1.08459e-01  -6.58198e-02   1.36986e-02
Si    5.92524e+00   2.95310e+00   8.84677e+00 -2.86288e-01  -2.29372e-01  -1.40953e-01
Si    8.84086e+00   2.08167e-02   8.82173e+00  3.14316e-01  -9.17123e-02   7.56376e-01
Si    7.40405e+00   1.44333e+00   7.40570e+00 -4.41117e-01   5.00254e-01  -6.38479e-01
Si    1.03169e+01   4.44394e+00   7.35756e+00 -1.42997e-02  -3.81262e-01   1.29054e-01
Si    7.37778e+00   4.40762e+00   1.03022e+01  3.97160e-02   3.20632e-01   2.05008e-01
Si    1.03426e+01   1.50681e+00   1.03318e+01 -1.46981e-01  -2.61494e-01  -2.90269e-01
Si    1.17793e+01   5.88025e+00   5.92719e+00  2.59059e-01   3.48159e-01  -4.23132e-01
Si    2.93300e+00   8.87321e+00   5.89411e+00  2.09890e-01  -3.09919e-01   4.27652e-01
Si    1.17891e+01   8.83656e+00   8.84617e+00  1.33102e-02   2.11240e-01   1.87245e-01
Si    2.98329e+00   5.87436e+00   8.85030e+00 -4.93199e-01   1.93236e-02  -7.54802e-02
Si    1.47279e+00   7.35032e+00   7.39684e+00  1.14730e-01   1.33463e-01  -1.83916e-01
Si    4.42767e+00   1.03524e+01   7.40730e+00 -3.18408e-02  -2.06609e-01  -6.53676e-01
Si    1.49429e+00   1.03426e+01   1.03222e+01 -3.77550e-01  -2.27259e-01   1.47773e-01
Si    4.41421e+00   7.35307e+00   1.03027e+01  1.48528e-01   2.88826e-01   3.28574e-01
Si    5.86803e+00   5.90756e+00   5.87367e+00  2.02425e-01  -8.78088e-02   3.76305e-01
Si    8.85883e+00   8.82926e+00   5.89609e+00 -4.08072e-01   6.01063e-01   7.04789e-02
Si    5.88211e+00   8.87506e+00   8.84636e+00  1.93499e-01  -1.56062e-01   1.52659e-01
Si    8.86845e+00   5.90831e+00   8.82609e+00 -4.13281e-01   1.51637e-03   9.51719e-02
Si    7.36279e+00   7.40192e+00   7.36280e+00 -6.56722e-02  -2.93767e-01   3.04204e-02
Si    1.02901e+01   1.03389e+01   7.39901e+00  3.56342e-01  -3.23262e-01  -2.79358e-01
Si    7.37208e+00   1.03578e+01   1.03225e+01  6.57664e-02  -3.39956e-01  -6.47233e-02
Si    1.03002e+01   7.37240e+00   1.03231e+01  3.69938e-01  -1.40407e-01  -1.39776e-01
