64
Lattice="10.253728 0 0 0 10.253728 0 0 0 10.253728 " PBC="1 1 1" Properties=species:S:1:pos:R:3:force:R:3 Energy="-264.701976169"
Si    3.63634e-03   1.02531e+01   1.02491e+01 -5.95765e-02   3.35224e-02   9.09767e-02
Si    2.55768e+00   2.56237e+00   1.02530e+01  1.25734e-01   5.37092e-02  -8.29477e-02
Si    1.02456e+01   2.56548e+00   2.56939e+00  2.42616e-01  -1.16408e-01  -4.02619e-02
Si    2.56976e+00   1.02526e+01   2.56819e+00 -2.58572e-01  -1.86287e-02  -8.97375e-02
Si    1.28759e+00   1.28218e+00   1.27851e+00 -1.86899e-01  -2.92169e-02   2.27454e-01
Si    3.84462e+00   3.84037e+00   1.27931e+00 -3.34154e-02   1.56578e-01  -1.73157e-02
Si    1.27638e+00   3.85176e+00   3.85125e+00  1.57517e-01  -1.56070e-01  -1.60103e-01
Si    3.84539e+00   1.27622e+00   3.83812e+00 -3.59998e-02   1.75641e-01   2.93802e-01
Si    5.12928e+00   1.02533e+01   8.05192e-03 -9.50724e-02   5.01448e-03  -1.44292e-01
Si    7.68882e+00   2.55997e+00   4.63762e-03  1.34196e-01   9.51145e-02  -9.25750e-02
Si    5.12061e+00   2.56509e+00   2.56601e+00  1.97676e-01  -1.13612e-01  -1.41136e-01
Si    7.68766e+00   1.44702e-03   2.57112e+00  3.12456e-02  -6.28923e-02  -1.49656e-01
Si    6.41206e+00   1.28072e+00   1.27509e+00 -1.18300e-01   5.23872e-02   3.31106e-01
Si    8.97584e+00   3.84174e+00   1.28488e+00 -1.18922e-01   8.81944e-02  -1.25711e-01
Si    6.41004e+00   3.84215e+00   3.84470e+00 -6.85164e-02  -3.92518e-02   1.77553e-02
Si    8.96731e+00   1.28175e+00   3.84998e+00  5.48408e-02  -1.89969e-02  -4.80850e-04
Si    1.02524e+01   5.12733e+00   1.02482e+01 -7.18279e-02   1.10453e-01   1.73273e-01
Si    2.56659e+00   7.68612e+00   6.77218e-03 -6.11581e-02  -1.68219e-02  -1.22159e-01
Si    1.02527e+01   7.69259e+00   2.56620e+00  8.73556e-02   6.47048e-02  -8.87355e-02
Si    2.56475e+00   5.13115e+00   2.56385e+00 -5.57207e-02  -1.65142e-01  -2.32099e-03
Si    1.27798e+00   6.40907e+00   1.28775e+00 -2.35531e-03  -2.69109e-02  -1.07701e-01
Si    3.83861e+00   8.97814e+00   1.28217e+00  1.30334e-01  -9.45965e-02  -1.76193e-03
Si    1.28336e+00   8.96795e+00   3.84811e+00  7.61239e-02   4.70568e-02  -1.33590e-01
Si    3.84203e+00   6.40695e+00   3.84688e+00  1.58097e-01   1.33526e-01  -1.00492e-01
Si    5.13264e+00   5.12825e+00   1.02526e+01 -1.04712e-01  -1.82558e-01   5.46666e-02
Si    7.68255e+00   7.68974e+00   1.02483e+01  1.23833e-01  -7.68961e-02   2.41903e-01
Si    5.12655e+00   7.69689e+00   2.55763e+00 -8.96389e-02  -8.89629e-02   1.56988e-01
Si    7.68362e+00   5.12052e+00   2.56080e+00  2.55302e-01   1.10320e-01   1.04725e-01
Si    6.40399e+00   6.40090e+00   1.28587e+00  8.80502e-02   2.05081e-01  -9.54957e-02
Si    8.97404e+00   8.97105e+00   1.28138e+00 -1.33320e-01   5.23744e-02  -2.12476e-02
Si    6.40316e+00   8.97609e+00   3.85253e+00 -4.53328e-02   2.50593e-03  -6.66554e-02
Si    8.97982e+00   6.41419e+00   3.83971e+00 -1.74405e-01  -3.21995e-01   1.82067e-01
Si    9.22211e-03   1.79759e-04   5.11909e+00 -1.60324e-01   2.72150e-02   2.55854e-01
Si    2.55854e+00   2.56331e+00   5.12963e+00  1.60447e-01   6.07192e-03  -1.79151e-01
Si    1.02459e+01   2.56342e+00   7.68581e+00  2.06417e-01   9.82649e-02   1.35773e-01
Si    2.55900e+00   1.02521e+01   7.68932e+00  6.15806e-02  -9.97049e-02   4.61127e-02
Si    1.28664e+00   1.28623e+00   6.41067e+00 -1.79609e-01  -9.94738e-02  -2.87760e-02
Si    3.84228e+00   3.84305e+00   6.41201e+00  2.81483e-02   1.16456e-01  -1.42114e-01
Si    1.28061e+00   3.85264e+00   8.97551e+00 -9.50206e-02  -2.38989e-01  -1.58934e-01
Si    3.84306e+00   1.27672e+00   8.97385e+00 -3.01137e-02  -1.16922e-02   4.83280e-02
Si    5.12209e+00   4.70739e-03   5.13632e+00 -1.67374e-02  -7.85346e-02  -1.49597e-01
Si    7.68239e+00   2.55722e+00   5.12969e+00  9.99250e-02   1.10117e-01   3.31992e-02
Si    5.11755e+00   2.55932e+00   7.68975e+00  1.29011e-01   5.40543e-02   1.17235e-01
Si    7.68719e+00   1.02510e+01   7.68908e+00  2.14889e-03   9.90786e-02   1.25300e-01
Si    6.40262e+00   1.28102e+00   6.41133e+00  2.87049e-02  -3.96249e-04   7.59570e-02
Si    8.97014e+00   3.84536e+00   6.40829e+00 -1.37219e-01  -8.51070e-02  -4.59168e-02
Si    6.40889e+00   3.84081e+00   8.97479e+00 -8.99730e-02  -8.24452e-02  -5.35206e-02
Si    8.97244e+00   1.28456e+00   8.97170e+00 -8.18597e-02  -1.07528e-01  -1.44755e-02
Si    7.06282e-03   5.11797e+00   5.13613e+00 -2.72569e-01   3.08919e-01  -1.53237e-01
Si    2.56379e+00   7.69007e+00   5.12581e+00 -3.47950e-02  -7.61842e-02   2.16211e-02
Si    2.34610e-03   7.68913e+00   7.68500e+00 -9.40269e-02   4.36446e-02   8.90772e-02
Si    2.55752e+00   5.12633e+00   7.69024e+00  9.09815e-02   1.00849e-01  -1.85994e-02
Si    1.27730e+00   6.41231e+00   6.40623e+00  1.62373e-01  -8.12672e-02   2.56443e-02
Si    3.84307e+00   8.96690e+00   6.40549e+00 -8.13149e-02   1.42150e-01   8.06554e-02
Si    1.27786e+00   8.96560e+00   8.97370e+00  1.48829e-01  -7.60785e-03  -2.99952e-02
Si    3.85088e+00   6.40211e+00   8.97315e+00 -1.57513e-01   9.49906e-02  -1.87467e-02
Si    5.13173e+00   5.12808e+00   5.12186e+00 -8.07802e-02  -4.44559e-02   1.87537e-01
Si    7.68377e+00   7.68833e+00   5.12360e+00  2.08211e-01   6.18996e-02   9.39118e-02
Si    5.11962e+00   7.69558e+00   7.69190e+00  1.57712e-01  -8.78778e-02   4.23449e-02
Si    7.68138e+00   5.11995e+00   7.68791e+00  1.99906e-01   1.20813e-01   1.14716e-01
Si    6.41056e+00   6.41085e+00   6.41423e+00 -1.67370e-01  -2.52325e-03  -8.28189e-02
Si    8.97154e+00   8.97388e+00   6.41419e+00  3.67451e-02  -2.17666e-02  -2.86203e-01
Si    6.40771e+00   8.97260e+00   8.97867e+00 -1.11690e-01   4.58507e-02  -1.55904e-01
Si    8.97040e+00   6.41436e+00   8.96769e+00 -7.94035e-02  -1.62043e-01  -6.56194e-02
