64
Lattice="10.862 0 0 0 10.862 0 0 0 10.862 " PBC="1 1 1" Properties=species:S:1:pos:R:3:force:R:3 Energy="-272.17401"
Si    1.08661e+01  -2.05381e-02   1.09774e+01 -5.16508e-01   4.68378e-01  -8.36680e-01
Si    2.78000e+00   2.67224e+00  -1.71014e-02 -9.78155e-01   1.34870e+00   7.72411e-01
Si    1.08667e+01   2.76796e+00   2.71211e+00 -1.61444e-02   7.91408e-02  -5.90497e-01
Si    2.63471e+00   5.54919e-02   2.70805e+00  1.51301e+00  -8.26140e-01   3.87136e-01
Si    1.37413e+00   1.39144e+00   1.37441e+00 -5.35891e-01   5.48650e-01  -3.57300e-01
Si    4.10686e+00   4.14773e+00   1.34513e+00 -7.25889e-02  -6.76869e-01  -3.54236e-01
Si    1.40460e+00   4.16262e+00   3.96859e+00 -7.44211e-02  -6.02773e-02   8.77206e-01
Si    4.07173e+00   1.39581e+00   4.09134e+00 -4.25192e-01  -4.71007e-01   4.97395e-02
Si    5.38717e+00   1.08491e+01   1.08322e+01  5.06568e-01   6.43949e-01   5.86027e-01
Si    8.06486e+00   2.65557e+00   1.08601e+01  8.16688e-01  -4.02753e-01   1.98955e+00
Si    5.41783e+00   2.75073e+00   2.73382e+00 -1.90003e-01   6.00340e-01   4.50412e-01
Si    8.10483e+00   1.08645e+01   2.71343e+00  1.01259e-01  -1.58196e+00   3.03503e-01
Si    6.72510e+00   1.31512e+00   1.48507e+00 -2.42189e-01   4.02873e-01  -2.03058e+00
Si    9.39564e+00   4.11563e+00   1.43828e+00  6.48859e-01  -1.33638e+00  -1.25517e+00
Si    6.70650e+00   4.19179e+00   4.12213e+00  1.38150e+00  -1.03789e+00  -5.66828e-01
Si    9.53471e+00   1.30333e+00   3.92790e+00  2.67808e-01   5.18337e-01   1.88304e+00
Si    1.08493e+01   5.30226e+00   1.08731e+01 -8.17382e-01   1.71457e+00  -1.17009e-01
Si    2.71183e+00   8.14474e+00   2.28132e-02 -4.73767e-01   9.05321e-02  -9.82687e-01
Si    5.54774e-03   8.11597e+00   2.72281e+00 -2.39707e-01  -7.30693e-01   2.67944e-01
Si    2.82853e+00   5.56131e+00   2.71463e+00 -5.74024e-01  -8.07352e-01  -2.53634e-01
Si    1.37216e+00   6.72406e+00   1.30922e+00 -4.37899e-01   5.59673e-01   5.04892e-01
Si    4.03232e+00   9.52482e+00   1.28895e+00  2.09482e-01  -5.35010e-02   1.77618e+00
Si    1.37542e+00   9.46467e+00   4.07478e+00 -3.25584e-01   5.23251e-01  -9.64292e-01
Si    4.10757e+00   6.85199e+00   4.14920e+00  9.04455e-01  -1.05253e+00  -4.32518e-02
Si    5.41406e+00   5.38954e+00  -1.61590e-01  1.19015e-01  -2.62982e-03   9.72036e-01
Si    8.23013e+00   8.19914e+00  -1.12264e-01 -1.01312e+00  -5.17342e-01   2.28169e-01
Si    5.44319e+00   8.13706e+00   2.73052e+00 -9.09566e-02  -2.62975e-01  -1.58642e+00
Si    8.14298e+00   5.53801e+00   2.69180e+00 -1.37807e+00  -2.67002e-01   8.05409e-01
Si    6.78272e+00   6.73999e+00   1.16477e+00  1.45030e-01   1.33096e+00   1.05823e+00
Si    9.48531e+00   9.45655e+00   1.38744e+00  3.00249e-02   4.23910e-01   1.85444e-01
Si    6.77984e+00   9.42421e+00   4.10391e+00  5.15609e-01   8.67709e-01   1.80878e-01
Si    9.44407e+00   6.78383e+00   4.18204e+00  1.45948e+00  -3.36662e-02  -9.98993e-01
Si    6.19571e-02  -3.27242e-02   5.39252e+00 -3.66753e-01   7.93433e-01  -4.86648e-01
Si    2.67502e+00   2.78053e+00   5.41047e+00  3.72193e-01  -6.31636e-02   1.86876e-01
Si    1.07100e+01   2.70787e+00   8.19970e+00  1.05687e+00  -2.35158e-01  -5.83902e-01
Si    2.77100e+00   1.00814e-01   8.13069e+00 -1.19398e+00  -1.17301e+00  -2.70503e-01
Si    1.32416e+00   1.40223e+00   6.77269e+00 -2.12825e-01   2.13311e-01   3.72077e-01
Si    4.06079e+00   4.01387e+00   6.91190e+00 -6.78172e-01   4.25359e-01  -2.40111e-01
Si    1.31718e+00   4.03515e+00   9.52287e+00  3.72647e-01  -8.20210e-01  -1.85986e-01
Si    4.05311e+00   1.36738e+00   9.51305e+00  1.01355e+00  -3.53365e-01  -1.33609e-01
Si    5.39380e+00  -6.59833e-02   5.45672e+00  4.14761e-01   3.97236e-01  -2.85700e-01
Si    8.19901e+00   2.70593e+00   5.37116e+00 -9.15198e-01  -2.60300e-01  -6.70160e-01
Si    5.45123e+00   2.60943e+00   8.15095e+00  6.73129e-01   4.45462e-01   1.98804e-01
Si    8.17505e+00  -6.09285e-03   8.04473e+00  7.35494e-01  -1.50325e+00   8.32409e-01
Si    6.86150e+00   1.28507e+00   6.77276e+00 -1.03594e+00   9.76533e-01  -1.10976e+00
Si    9.48566e+00   4.07872e+00   6.71241e+00 -1.82890e-01   2.57848e-01   1.38620e+00
Si    6.83495e+00   3.97521e+00   9.54044e+00 -8.10877e-01   8.35080e-01  -1.76474e+00
Si    9.41654e+00   1.27143e+00   9.54772e+00  6.64924e-01   1.73813e-01   2.05497e-01
Si    1.09139e+01   5.41205e+00   5.46846e+00 -3.67682e-01   1.11926e-01  -1.06187e+00
Si    2.68925e+00   8.13409e+00   5.35639e+00  4.83871e-01   1.75757e-01   1.49974e+00
Si    1.10058e+01   8.15115e+00   8.17021e+00 -2.17516e-01   2.21565e-01  -1.16031e+00
Si    2.65090e+00   5.46871e+00   8.22498e+00  7.81573e-01  -9.18552e-01  -5.41772e-01
Si    1.42467e+00   6.74930e+00   6.74506e+00 -3.43042e-01   6.67232e-01   5.58257e-01
Si    4.04474e+00   9.43972e+00   6.80782e+00 -5.64276e-01   7.76352e-01  -3.20875e-01
Si    1.35363e+00   9.59636e+00   9.53266e+00  1.04752e+00  -2.70648e-01   6.47865e-02
Si    4.06834e+00   6.82528e+00   9.47914e+00 -5.24854e-01  -8.34059e-02   3.24881e-01
Si    5.42102e+00   5.39176e+00   5.60903e+00 -5.93115e-01   1.20170e+00  -7.37294e-01
Si    8.17242e+00   8.12630e+00   5.51492e+00 -4.30053e-01   5.10713e-01  -4.27121e-01
Si    5.39306e+00   8.18578e+00   8.18544e+00  5.46057e-01  -2.60193e-01  -3.85384e-01
Si    8.15654e+00   5.47420e+00   8.19711e+00 -1.08112e-01  -9.66429e-01  -9.14593e-01
Si    6.78754e+00   6.84414e+00   6.84645e+00 -1.74079e-01  -5.30128e-01   6.49714e-01
Si    9.65128e+00   9.45235e+00   6.72205e+00 -8.12370e-01   3.48269e-01   1.20173e+00
Si    6.75964e+00   9.55797e+00   9.46909e+00  7.69063e-01  -9.35691e-02  -1.99895e-01
Si    9.57877e+00   6.84246e+00   9.39602e+00  3.82884e-01  -1.00023e+00   1.65861e+00
