64
Lattice="10.862 0 0 0 10.862 0 0 0 10.862 " PBC="1 1 1" Properties=species:S:1:pos:R:3:force:R:3 Energy="-272.65942"
Si    1.08427e+01   4.52085e-02   1.08156e+01 -4.14407e-01  -1.16632e+00   1.18865e+00
Si    2.67265e+00   2.79609e+00  -2.33057e-02  6.63673e-02  -1.51903e+00   3.21029e-01
Si    1.08724e+01   2.71101e+00   2.77661e+00 -1.26423e+00   9.57021e-01  -9.49295e-01
Si    2.71918e+00  -6.14534e-03   2.61128e+00 -2.76227e-01  -2.85933e-01   2.59278e-01
Si    1.23263e+00   1.38031e+00   1.37397e+00  1.81609e+00   1.72003e-01  -8.41566e-01
Si    4.04832e+00   3.98291e+00   1.40241e+00 -1.42194e-01   1.95235e-01   1.16904e+00
Si    1.36235e+00   4.06117e+00   4.08993e+00  2.07075e-01   6.36957e-01   1.14906e-01
Si    4.09670e+00   1.25024e+00   4.00965e+00 -5.42309e-01   1.11503e+00   3.43865e-01
Si    5.43518e+00   1.08042e+01   1.08277e+01  1.73471e-01   4.75237e-01   6.02473e-01
Si    8.18879e+00   2.74122e+00   1.08610e+01 -1.56152e-01  -5.07345e-02   3.17465e-01
Si    5.50629e+00   2.59822e+00   2.70512e+00 -6.31451e-01   1.05350e+00   4.13876e-01
Si    8.10195e+00   1.07318e+01   2.74375e+00  5.11614e-01   1.28886e+00  -3.26981e-01
Si    6.82176e+00   1.31412e+00   1.37607e+00  5.46364e-01  -7.06545e-01  -1.06918e+00
Si    9.53391e+00   4.22028e+00   1.29278e+00  2.85937e-01  -2.05094e+00   9.96766e-01
Si    6.90191e+00   4.01367e+00   4.03321e+00 -1.48419e+00  -1.90584e-01  -3.25331e-01
Si    9.51878e+00   1.27467e+00   4.04220e+00 -4.85576e-01   3.55326e-01   6.68734e-01
Si    1.09037e+01   5.43785e+00   1.07666e+01  3.49628e-01   1.78067e-01   3.03114e-01
Si    2.68904e+00   8.21174e+00  -9.75711e-02 -7.21687e-02  -1.43629e+00   1.23857e+00
Si    1.06814e-01   8.07394e+00   2.72818e+00 -6.29752e-01   9.66904e-01  -2.98539e-01
Si    2.76419e+00   5.47822e+00   2.76461e+00 -1.54187e-01  -9.54342e-01  -1.12249e-01
Si    1.39267e+00   6.71576e+00   1.29826e+00  5.43732e-01   9.74750e-01   2.15994e-03
Si    4.07741e+00   9.40530e+00   1.33361e+00 -1.68189e-02   9.74161e-01  -1.65991e-01
Si    1.42011e+00   9.54373e+00   4.08630e+00 -2.42148e-01  -3.71813e-01   5.39697e-02
Si    4.14344e+00   6.76336e+00   4.18670e+00 -5.24577e-01   5.23920e-01  -1.03596e+00
Si    5.30481e+00   5.38784e+00   1.37800e-01  6.69771e-01  -7.20142e-02  -1.96896e+00
Si    8.14408e+00   8.09379e+00   8.47149e-02 -1.36842e-01   7.25691e-02  -8.57942e-01
Si    5.44300e+00   8.12922e+00   2.75036e+00 -3.49211e-01  -8.82775e-01  -5.52052e-01
Si    8.14451e+00   5.42310e+00   2.71731e+00  2.20325e-01   8.49911e-01  -5.50501e-01
Si    6.73473e+00   6.70492e+00   1.29688e+00  3.93969e-01   7.56767e-01   1.97677e+00
Si    9.49145e+00   9.45395e+00   1.38822e+00  1.11216e+00   8.56086e-02  -1.05954e-01
Si    6.66273e+00   9.55703e+00   4.07126e+00  2.13341e-01  -3.52867e-01   6.62286e-01
Si    9.46965e+00   6.85634e+00   4.05215e+00  1.48790e-01  -6.73652e-01   2.82976e-01
Si    4.78219e-02   4.29091e-02   5.50074e+00 -2.11823e-02  -3.92616e-01  -1.00683e+00
Si    2.74725e+00   2.69344e+00   5.38847e+00 -4.14813e-02  -6.05589e-01  -5.61610e-01
Si    1.09135e+01   2.78861e+00   8.10361e+00  1.35991e-01  -1.47474e-03   2.68142e-01
Si    2.66970e+00   7.52259e-02   8.21666e+00  5.86799e-01  -7.78735e-01   1.29362e-01
Si    1.41063e+00   1.39921e+00   6.80474e+00 -2.88506e-01   3.01970e-01  -9.09624e-02
Si    4.05321e+00   4.06598e+00   6.68156e+00  5.48837e-02   3.15896e-01   1.32377e+00
Si    1.44929e+00   4.15712e+00   9.43023e+00 -1.10941e+00  -7.74636e-01   3.42357e-01
Si    4.14764e+00   1.42692e+00   9.49931e+00 -1.42976e+00  -5.08923e-01   8.05104e-01
Si    5.35021e+00   2.60296e-02   5.50082e+00  1.08353e+00   1.66142e-01  -2.86034e-01
Si    8.12404e+00   2.68706e+00   5.40807e+00  1.19925e+00  -5.10503e-01   3.37686e-01
Si    5.37914e+00   2.80779e+00   8.17024e+00  7.76282e-01  -2.12922e-01  -8.80903e-01
Si    8.21449e+00   1.35606e-02   8.18448e+00 -7.71710e-01   4.62023e-01  -1.61000e-01
Si    6.76378e+00   1.41188e+00   6.81927e+00  5.76687e-03  -4.93361e-01   4.57268e-01
Si    9.47571e+00   4.07975e+00   6.78438e+00 -4.62999e-01   9.27177e-02   7.96014e-02
Si    6.73661e+00   4.08617e+00   9.56889e+00  2.70908e-01   8.18943e-01  -1.47770e-01
Si    9.60683e+00   1.42589e+00   9.50287e+00 -1.01430e+00   2.19914e-01  -6.08172e-01
Si    1.08120e+01   5.42735e+00   5.43774e+00  3.27237e-01   4.91160e-01  -1.58914e-01
Si    2.74598e+00   8.15298e+00   5.48573e+00 -3.07003e-01  -1.52269e-02   5.35758e-01
Si    1.07648e+01   8.22139e+00   8.10924e+00  1.84368e-01  -1.05131e+00   5.85884e-01
Si    2.76553e+00   5.46272e+00   8.15732e+00  5.64772e-01   3.63392e-01  -9.68965e-01
Si    1.29580e+00   6.78272e+00   6.88222e+00  4.04984e-01   3.73701e-01  -1.09142e+00
Si    4.08939e+00   9.56491e+00   6.86411e+00 -9.54256e-01  -7.15771e-01   4.01880e-01
Si    1.26424e+00   9.46682e+00   9.50799e+00  4.07074e-01   1.47320e+00  -7.69928e-01
Si    4.09043e+00   6.81835e+00   9.54677e+00 -1.97849e-01  -5.72824e-01  -1.55654e-01
Si    5.46768e+00   5.31380e+00   5.36594e+00  4.65924e-01   1.02865e-01   1.12474e-01
Si    8.04131e+00   8.20253e+00   5.36486e+00  5.69509e-01  -2.07398e-01   4.90829e-01
Si    5.43375e+00   8.09222e+00   8.14369e+00  6.46089e-01   3.51465e-01  -2.62220e-01
Si    8.11711e+00   5.50647e+00   8.15198e+00  9.98947e-02  -1.19895e+00   3.99718e-01
Si    6.76959e+00   6.70696e+00   6.69306e+00 -2.28510e-01   1.05051e+00   5.60059e-01
Si    9.47554e+00   9.54399e+00   6.73073e+00 -4.95816e-01  -5.51152e-02  -3.82364e-02
Si    6.82741e+00   9.45418e+00   9.52775e+00  1.81238e-01  -6.08686e-02  -4.42762e-01
Si    9.51077e+00   6.79705e+00   9.55371e+00 -3.77916e-01   6.54328e-01  -9.53943e-01
