64
Lattice="10.862 0 0 0 10.862 0 0 0 10.862 " PBC="1 1 1" Properties=species:S:1:pos:R:3:force:R:3 Energy="-272.7056"
Si    1.08530e+01   4.19495e-02   1.09246e+01 -1.91019e-01  -1.57738e-01  -6.84271e-02
Si    2.68733e+00   2.77013e+00   3.40684e-02  4.43210e-01  -3.91227e-01  -9.69335e-01
Si    1.08799e+01   2.78299e+00   2.72666e+00  5.82311e-01  -9.21450e-02  -2.83463e-01
Si    2.69285e+00  -4.43362e-03   2.71339e+00 -2.18695e-01  -4.37542e-02  -2.21498e-01
Si    1.35649e+00   1.44306e+00   1.33197e+00 -3.39424e-02  -8.04841e-01   1.07434e+00
Si    4.12322e+00   4.01536e+00   1.31506e+00 -5.12554e-01   9.63986e-01   9.48938e-01
Si    1.39810e+00   4.16660e+00   4.05961e+00 -1.72578e-01  -7.62333e-01  -1.99649e-01
Si    4.03261e+00   1.36501e+00   4.05468e+00  3.04985e-01  -6.56088e-01   1.11087e+00
Si    5.42868e+00   1.07716e+01   1.09084e+01 -1.78172e-01   1.04718e+00  -7.22540e-01
Si    8.02743e+00   2.60675e+00   1.09002e+01  1.00499e+00   5.12027e-01   3.63994e-01
Si    5.37287e+00   2.68738e+00   2.77070e+00  3.64381e-01   1.78113e-01  -5.74778e-01
Si    8.14239e+00   1.08040e+01   2.72377e+00 -1.30617e-01   5.53584e-01  -1.30053e-01
Si    6.70680e+00   1.31395e+00   1.41924e+00  1.79947e-01  -6.02582e-01   2.29156e-01
Si    9.49075e+00   3.97202e+00   1.32701e+00 -8.71519e-01   6.91569e-01   1.09035e-01
Si    6.69050e+00   4.04160e+00   4.14250e+00  1.61682e+00   1.47198e-01  -6.17327e-01
Si    9.49395e+00   1.42638e+00   3.96019e+00  6.40104e-02  -1.10197e+00   1.18561e-01
Si    1.07704e+01   5.46836e+00   1.09274e+01  1.03323e+00  -2.26604e-01  -2.26566e-01
Si    2.68392e+00   8.21576e+00   7.54963e-02  1.42390e-01  -4.44095e-01  -3.09120e-01
Si   -5.14925e-02   8.12588e+00   2.71096e+00  5.44766e-01  -5.35086e-01   7.58523e-01
Si    2.72621e+00   5.43821e+00   2.70555e+00  1.47780e+00  -3.55696e-01   3.07601e-02
Si    1.38251e+00   6.76994e+00   1.43987e+00 -8.99518e-01   6.40141e-01  -1.08746e+00
Si    4.15313e+00   9.46172e+00   1.43658e+00 -1.35943e+00   3.64962e-01  -1.72007e-01
Si    1.30228e+00   9.48245e+00   4.08836e+00  1.10352e+00  -5.11012e-01  -1.15252e+00
Si    4.10510e+00   6.72953e+00   4.15913e+00  4.76777e-01   5.61066e-02  -2.51582e-01
Si    5.47258e+00   5.33346e+00  -6.27395e-02 -2.57031e-01   1.14069e+00   1.76982e-01
Si    8.14554e+00   8.14927e+00  -1.36944e-01  3.80602e-01   4.06351e-01   9.85751e-01
Si    5.45615e+00   8.10833e+00   2.74008e+00  8.39367e-01  -1.28896e+00   1.06197e-01
Si    8.13294e+00   5.39056e+00   2.66985e+00 -3.20325e-01  -1.07285e+00   6.19299e-01
Si    6.87544e+00   6.74714e+00   1.27837e+00 -1.27618e+00   3.92839e-01   4.16069e-02
Si    9.51936e+00   9.48129e+00   1.40016e+00 -7.23020e-01  -2.26911e-02  -1.44793e+00
Si    6.88402e+00   9.38843e+00   4.08963e+00 -4.08716e-01   2.71536e-01  -2.90952e-01
Si    9.46498e+00   6.71088e+00   4.05018e+00  3.14932e-01   7.33417e-01  -6.16862e-02
Si   -3.40303e-02  -3.92844e-03   5.25135e+00 -3.84827e-01   1.00148e+00   1.82051e+00
Si    2.78872e+00   2.87637e+00   5.41633e+00 -8.00488e-01  -1.33841e+00   4.25980e-01
Si    1.07572e+01   2.73960e+00   8.18748e+00  4.56924e-01   1.14051e-02  -2.16243e-01
Si    2.66153e+00   1.21426e-01   8.12773e+00  1.10995e-01  -7.32988e-02  -3.12632e-01
Si    1.25016e+00   1.44121e+00   6.70027e+00  7.25117e-01   1.41322e-01  -6.58575e-02
Si    4.10784e+00   4.10600e+00   6.91161e+00  3.95244e-01  -5.12030e-01  -2.84362e-01
Si    1.28785e+00   4.08625e+00   9.56706e+00 -1.27371e-01   4.09322e-01  -4.44414e-01
Si    4.07679e+00   1.38771e+00   9.53488e+00  6.83434e-02  -4.35135e-01   2.44889e-01
Si    5.51143e+00  -1.02034e-01   5.36439e+00 -7.45181e-01   1.18845e+00  -1.39234e-01
Si    8.19736e+00   2.66036e+00   5.38188e+00 -3.72939e-01   1.34275e+00   5.23155e-02
Si    5.52340e+00   2.60313e+00   8.11079e+00 -5.20177e-01   7.20204e-01   3.31316e-01
Si    8.22331e+00   6.04982e-02   8.11546e+00 -8.42975e-01  -1.12410e+00  -1.00051e-02
Si    6.86092e+00   1.30309e+00   6.67999e+00 -2.03682e-01  -1.93612e-01   4.81970e-01
Si    9.54110e+00   4.13213e+00   6.70563e+00 -3.34044e-01  -8.85365e-01   1.45624e-01
Si    6.84861e+00   3.99105e+00   9.50245e+00 -5.72515e-01  -1.48303e-01  -7.32076e-01
Si    9.44424e+00   1.34010e+00   9.58916e+00  5.13208e-01   3.01124e-01  -4.39872e-01
Si    1.09159e+01   5.47171e+00   5.36690e+00 -3.30180e-01   1.45130e-01   5.99880e-01
Si    2.75273e+00   8.17244e+00   5.43065e+00 -3.01454e-01   1.24858e-02   2.54517e-01
Si    1.08981e+01   8.21474e+00   8.09015e+00  4.96139e-01  -4.73650e-01   1.00440e+00
Si    2.65518e+00   5.43570e+00   8.14768e+00  9.56964e-02   1.69341e-02   9.52351e-01
Si    1.37562e+00   6.80129e+00   6.77489e+00 -2.67740e-02   4.52790e-01  -2.96268e-01
Si    4.07137e+00   9.59809e+00   6.78393e+00 -6.88283e-01  -9.65340e-02  -1.02684e-01
Si    1.34835e+00   9.61472e+00   9.52673e+00  5.31799e-02  -6.37866e-01  -1.52418e-01
Si    4.00729e+00   6.80370e+00   9.53791e+00  2.45368e-01  -1.00538e-01   1.27295e-01
Si    5.53422e+00   5.41242e+00   5.61092e+00 -1.44853e+00   3.70196e-01  -1.00127e+00
Si    8.21065e+00   8.10317e+00   5.47874e+00 -1.15155e-01  -3.09391e-01   2.88747e-01
Si    5.31514e+00   8.24285e+00   8.17250e+00  3.70899e-01  -1.23610e+00  -2.54484e-01
Si    8.14121e+00   5.35873e+00   8.10768e+00  5.17630e-01   9.08607e-01   5.92451e-01
Si    6.77944e+00   6.83695e+00   6.89457e+00  3.70565e-01   4.47009e-01   9.14344e-02
Si    9.57278e+00   9.52678e+00   6.77706e+00 -4.75610e-01   5.31315e-01  -8.01617e-01
Si    6.73980e+00   9.51999e+00   9.41702e+00  9.72194e-01   6.57543e-01   4.48615e-01
Si    9.54492e+00   6.79524e+00   9.44262e+00 -4.22037e-01  -1.23760e-01  -4.95978e-01
