64
Lattice="10.862 0 0 0 10.862 0 0 0 10.862 " PBC="1 1 1" Properties=species:S:1:pos:R:3:force:R:3 Energy="-272.81936"
Si    1.08166e+01   1.44824e-02   1.09025e+01  4.15638e-01  -5.60292e-01   1.54715e-01
Si    2.75339e+00   2.77182e+00  -1.55043e-02 -3.01825e-01  -1.19534e+00   9.16657e-01
Si    1.08296e+01   2.68525e+00   2.66871e+00  4.01654e-01   4.30966e-01   9.54211e-01
Si    2.73996e+00  -5.16087e-03   2.67521e+00  1.59018e-01  -2.64590e-02   6.73327e-01
Si    1.36208e+00   1.33278e+00   1.39149e+00  2.47169e-01   7.40753e-01  -1.09246e+00
Si    4.13216e+00   4.01859e+00   1.36908e+00 -4.81108e-01   6.04745e-01  -1.14638e-01
Si    1.33162e+00   4.01935e+00   4.14089e+00 -7.60324e-01   6.79210e-01  -9.49736e-01
Si    4.10150e+00   1.33594e+00   4.11321e+00 -4.06062e-01  -2.13754e-01  -9.30333e-01
Si    5.50543e+00   1.08033e+01   1.08833e+01  1.24093e-01   7.33736e-01  -6.06732e-01
Si    8.24892e+00   2.79965e+00   1.08683e+01 -1.06844e+00  -4.96251e-01  -1.16094e-01
Si    5.44391e+00   2.63401e+00   2.64707e+00  5.64960e-01  -3.36978e-01   7.27496e-01
Si    8.16515e+00   1.08600e+01   2.77572e+00  3.63644e-01  -3.43788e-01  -1.17224e-01
Si    6.93621e+00   1.32362e+00   1.36311e+00 -9.14400e-01   4.67967e-01  -6.82582e-01
Si    9.53410e+00   4.13794e+00   1.35200e+00  2.34396e-02   5.41559e-01   4.40254e-01
Si    6.81106e+00   4.00063e+00   3.98756e+00 -1.10187e-01   1.09876e+00  -1.09974e-01
Si    9.54494e+00   1.31880e+00   4.09028e+00 -2.50009e-01   4.35082e-01   7.29456e-01
Si    1.09543e+01   5.40905e+00   1.08378e+01 -7.33337e-01   4.79585e-01  -2.37438e-01
Si    2.71928e+00   8.12386e+00  -1.48709e-01 -5.39418e-01   4.47090e-02   8.88699e-01
Si    6.07578e-03   8.13074e+00   2.74541e+00  5.88032e-01  -2.77350e-01  -3.94131e-01
Si    2.71154e+00   5.34958e+00   2.70768e+00 -2.98595e-02   4.46814e-01   3.66485e-01
Si    1.39879e+00   6.77952e+00   1.33214e+00  7.84474e-02   1.93500e-01   1.61753e-01
Si    4.02560e+00   9.50842e+00   1.26669e+00  2.21377e-01  -4.91203e-01   1.89887e-01
Si    1.42360e+00   9.46272e+00   4.04621e+00 -1.57615e-01   4.11235e-02   7.59619e-01
Si    4.01822e+00   6.84023e+00   4.04763e+00  6.65461e-01  -1.78515e+00   4.57252e-01
Si    5.44185e+00   5.44219e+00   6.18878e-02 -7.28272e-01   6.82979e-01  -7.90648e-01
Si    8.14415e+00   8.15742e+00   2.21858e-02  1.89352e-01  -3.22043e-01   4.96741e-01
Si    5.31625e+00   8.16528e+00   2.71292e+00  4.50014e-01   1.43167e+00   3.09644e-01
Si    8.08631e+00   5.54766e+00   2.68314e+00  6.19664e-01  -1.30589e+00   3.29678e-01
Si    6.70289e+00   6.88655e+00   1.44463e+00  4.21624e-01  -3.31980e-01  -1.50013e+00
Si    9.51416e+00   9.47153e+00   1.43205e+00 -2.94048e-01   4.53325e-01  -5.25965e-01
Si    6.73138e+00   9.58040e+00   4.08547e+00  1.01931e-02  -1.56140e+00  -2.34165e-01
Si    9.43044e+00   6.86628e+00   4.06445e+00  7.97950e-01  -1.12744e+00   6.54807e-01
Si    1.14895e-02  -1.07381e-01   5.48106e+00  2.76538e-01   7.52217e-01  -1.32197e+00
Si    2.69418e+00   2.68376e+00   5.40225e+00  6.55568e-01  -1.81585e-01   3.65921e-01
Si    1.09821e+01   2.69506e+00   8.22054e+00 -1.32094e+00  -2.65680e-02  -1.04909e+00
Si    2.60498e+00   4.29818e-02   8.17176e+00  9.59935e-01   1.49268e-02   4.08485e-01
Si    1.35175e+00   1.32536e+00   6.73386e+00 -2.91946e-01   3.83015e-01   5.39622e-01
Si    4.11002e+00   4.05504e+00   6.69673e+00  7.14304e-01  -8.51297e-01   1.60880e-01
Si    1.44978e+00   4.06959e+00   9.48669e+00 -1.52216e-01   3.19864e-01  -9.58740e-02
Si    4.06472e+00   1.35827e+00   9.54813e+00  1.42926e-01  -7.50044e-01  -3.92074e-02
Si    5.35667e+00  -8.04154e-02   5.46820e+00  2.28699e-01   1.18752e+00   6.51007e-01
Si    8.14209e+00   2.78438e+00   5.43264e+00  1.91933e-01  -1.51813e+00   3.84146e-02
Si    5.43226e+00   2.68182e+00   8.21043e+00 -4.03142e-01   1.15286e+00  -4.28313e-01
Si    8.19574e+00   1.01450e-01   8.14246e+00 -8.18611e-01  -5.58223e-01  -2.61946e-01
Si    6.70853e+00   1.38704e+00   6.79237e+00  9.37172e-01  -3.82858e-01  -4.40698e-01
Si    9.49358e+00   4.06265e+00   6.84548e+00  2.88051e-01  -1.89657e-01   5.82059e-01
Si    6.78838e+00   4.12899e+00   9.53895e+00  5.68991e-01  -1.24550e-01  -5.12296e-01
Si    9.52725e+00   1.38184e+00   9.54043e+00  4.81461e-01   4.50359e-01  -1.58042e-01
Si    1.07932e+01   5.42760e+00   5.51536e+00  2.45609e-02   2.53539e-01  -1.59677e+00
Si    2.77415e+00   8.11706e+00   5.49442e+00 -1.15250e+00   5.55286e-01  -1.48384e-01
Si    1.08187e+01   8.14900e+00   8.14822e+00 -1.51582e-01   3.76472e-01  -4.40280e-01
Si    2.72956e+00   5.32254e+00   7.99470e+00 -7.23685e-01   9.75560e-01   4.91099e-01
Si    1.30390e+00   6.79205e+00   6.78499e+00  5.95329e-01  -1.61988e-01   1.98767e-01
Si    3.99798e+00   9.53480e+00   6.90220e+00  4.69447e-01  -4.63287e-01  -3.23807e-01
Si    1.28669e+00   9.51645e+00   9.48374e+00 -1.22020e-01   8.64778e-02   3.44366e-01
Si    3.98688e+00   6.71149e+00   9.36646e+00  1.52553e+00  -1.03794e-01   1.05370e+00
Si    5.52625e+00   5.42571e+00   5.37679e+00 -1.01644e+00   3.87879e-01  -3.42659e-01
Si    8.10723e+00   8.15980e+00   5.43729e+00 -5.17149e-01   8.81808e-01  -3.09016e-01
Si    5.43667e+00   8.17219e+00   8.19026e+00 -4.18769e-01  -3.13797e-01  -4.41532e-01
Si    8.12969e+00   5.52983e+00   8.08565e+00  2.51559e-01  -1.09854e+00   1.33796e+00
Si    6.78281e+00   6.83957e+00   6.80047e+00 -5.81559e-01   2.89069e-02  -5.70482e-01
Si    9.44091e+00   9.52750e+00   6.76866e+00  3.01083e-01  -5.62895e-01   8.16190e-01
Si    6.88699e+00   9.47807e+00   9.46199e+00 -5.04464e-01   8.68432e-01   3.69364e-01
Si    9.51252e+00   6.81057e+00   9.51283e+00 -4.89490e-03  -5.19089e-01   3.14095e-01
