64
Lattice="10.862 0 0 0 10.862 0 0 0 10.862 " PBC="1 1 1" Properties=species:S:1:pos:R:3:force:R:3 Energy="-272.80389"
Si    1.09011e+01  -3.23372e-02   1.07962e+01  8.33779e-01   2.62677e-03   6.66314e-01
Si    2.73294e+00   2.70183e+00  -7.82757e-02 -5.84029e-01  -8.30023e-01   9.36183e-01
Si    1.08897e+01   2.72450e+00   2.73437e+00 -3.37317e-01  -3.66963e-01  -1.93933e-01
Si    2.72347e+00  -6.73228e-02   2.82422e+00 -1.99436e-01   9.42064e-01  -7.14085e-01
Si    1.40852e+00   1.30528e+00   1.39830e+00 -1.09390e-01   3.31137e-01  -5.40722e-01
Si    3.98030e+00   4.12214e+00   1.23321e+00  1.33206e+00   1.42489e-01   4.29565e-01
Si    1.31444e+00   4.01136e+00   4.18277e+00  6.88908e-01   1.14904e-01  -8.96375e-01
Si    4.09887e+00   1.33658e+00   4.09323e+00 -7.37109e-02   7.23377e-01  -9.59770e-01
Si    5.47232e+00   1.09269e+01   1.08811e+01 -5.98578e-01  -5.53596e-02   5.70252e-01
Si    8.27806e+00   2.74657e+00   1.08686e+01 -1.61496e+00  -2.12256e-02  -9.11351e-01
Si    5.36242e+00   2.83941e+00   2.66828e+00  9.92903e-02  -8.58727e-01   2.93406e-01
Si    8.18626e+00   1.09906e+01   2.69140e+00 -1.25957e-01  -2.74347e-01   9.86568e-02
Si    6.81416e+00   1.48690e+00   1.36688e+00 -1.79619e-01  -1.12018e-01  -2.50375e-01
Si    9.49871e+00   4.09710e+00   1.35954e+00  9.38118e-01   2.73197e-01   7.82230e-01
Si    6.83180e+00   4.06120e+00   4.05805e+00 -2.35405e+00   7.39426e-01   1.91109e-01
Si    9.51523e+00   1.38256e+00   4.12447e+00 -7.53839e-01   1.07052e+00  -3.09144e-01
Si    1.08746e+01   5.48016e+00   1.08974e+01 -3.53804e-01  -1.16503e+00  -6.69058e-01
Si    2.76284e+00   8.10024e+00  -4.45793e-02 -3.93604e-01   5.03500e-01   8.52811e-01
Si   -2.39523e-02   8.14710e+00   2.75743e+00 -3.11143e-01   6.53171e-01  -1.51123e+00
Si    2.66248e+00   5.33329e+00   2.68337e+00 -4.42300e-01   1.24969e+00   7.32358e-01
Si    1.31309e+00   6.79960e+00   1.33696e+00  1.02597e+00   2.95568e-01   8.36449e-01
Si    4.04233e+00   9.56725e+00   1.38482e+00  9.53866e-01  -8.73900e-01  -5.70587e-01
Si    1.27681e+00   9.51780e+00   4.07474e+00 -6.95547e-03  -1.19542e-01   9.14528e-01
Si    4.03749e+00   6.83656e+00   4.02506e+00 -8.54571e-01   8.16081e-01  -1.39891e+00
Si    5.48889e+00   5.55846e+00   3.88665e-02 -6.84800e-01  -1.37768e+00  -7.22356e-01
Si    8.12154e+00   8.20562e+00   9.47303e-02  1.16692e-01  -3.17481e-01  -7.25566e-01
Si    5.53414e+00   8.23511e+00   2.72322e+00 -1.54846e+00   5.30156e-02   3.09286e-01
Si    8.09574e+00   5.36423e+00   2.76097e+00  1.23058e+00   1.41399e+00  -8.95375e-01
Si    6.80117e+00   6.83091e+00   1.43288e+00  5.58582e-01  -1.75529e-01   5.92766e-02
Si    9.49375e+00   9.61530e+00   1.32378e+00  5.87235e-01  -8.78756e-01   9.46616e-01
Si    6.89329e+00   9.59062e+00   4.05737e+00 -2.23779e-01  -2.03671e-02   1.14947e-01
Si    9.48275e+00   6.82021e+00   4.04912e+00 -4.01531e-01  -1.03417e+00   5.31901e-01
Si   -1.32695e-01  -1.98606e-02   5.45093e+00  1.40487e+00  -3.28789e-01   3.29906e-01
Si    2.69069e+00   2.57564e+00   5.45614e+00 -8.43820e-02   5.75823e-01   6.28269e-01
Si    1.08886e+01   2.61936e+00   8.13633e+00  3.09439e-01   9.91611e-01   6.74937e-01
Si    2.70092e+00  -1.37563e-01   8.08444e+00  6.85829e-01   4.70688e-01   1.02015e+00
Si    1.31746e+00   1.21212e+00   6.86479e+00  8.27489e-02   4.11035e-01  -1.43545e+00
Si    4.14001e+00   4.02891e+00   6.69304e+00 -6.79091e-01   3.34104e-01   1.76547e-02
Si    1.38725e+00   4.05768e+00   9.51953e+00 -7.26083e-01   3.06230e-01  -7.78582e-01
Si    4.04814e+00   1.29810e+00   9.49518e+00  8.44017e-03  -1.38497e-01  -7.28713e-01
Si    5.50433e+00   8.17153e-02   5.38003e+00 -5.07229e-02  -8.18534e-01   8.72627e-01
Si    8.05965e+00   2.77778e+00   5.44628e+00  1.26242e+00  -1.28204e+00   7.66806e-01
Si    5.39495e+00   2.72998e+00   8.18474e+00 -2.74047e-01  -1.77098e-01  -1.62493e-01
Si    8.12144e+00  -2.18495e-02   8.23026e+00  4.21515e-01   4.74686e-01  -6.94407e-01
Si    6.74709e+00   1.40695e+00   6.87234e+00  7.27193e-01  -4.68782e-01  -4.32749e-01
Si    9.51476e+00   4.00407e+00   6.84218e+00 -2.00673e-01   5.53219e-01  -4.12390e-01
Si    6.76040e+00   4.08388e+00   9.47470e+00  1.05513e+00   4.87551e-01   1.07608e+00
Si    9.57731e+00   1.33439e+00   9.52030e+00 -7.91963e-01  -7.12674e-02  -1.82014e-01
Si    1.08032e+01   5.40354e+00   5.43298e+00 -4.02034e-01  -2.29665e-01  -1.66540e-01
Si    2.66293e+00   8.17904e+00   5.42271e+00  1.68413e-01  -4.11533e-01  -4.35337e-01
Si    1.08355e+01   8.02350e+00   8.13346e+00  1.63487e-01   9.42703e-02   6.55683e-02
Si    2.79731e+00   5.37366e+00   8.12166e+00 -6.97532e-01   5.97282e-02  -5.06681e-01
Si    1.34577e+00   6.69834e+00   6.70057e+00  5.34580e-01   4.06132e-01   1.27405e+00
Si    4.11384e+00   9.50839e+00   6.70121e+00  4.45292e-01  -2.29535e-01   5.47918e-02
Si    1.36462e+00   9.39148e+00   9.45496e+00 -1.80614e-01   5.14140e-02   8.63306e-02
Si    4.10432e+00   6.78312e+00   9.46816e+00  4.54847e-01   8.84233e-02  -2.81683e-01
Si    5.35344e+00   5.55559e+00   5.28094e+00  1.81499e+00  -1.87398e+00   1.59053e+00
Si    8.14119e+00   8.14534e+00   5.43628e+00  3.49255e-01   4.76815e-01  -1.84160e-01
Si    5.48102e+00   8.12414e+00   8.08824e+00 -4.80854e-01   7.40234e-01   5.33272e-01
Si    8.20681e+00   5.45788e+00   8.16034e+00 -1.08097e+00  -6.95184e-01  -3.03873e-01
Si    6.80888e+00   6.78936e+00   6.75173e+00 -1.48848e-01  -6.21606e-01  -2.03445e-01
Si    9.49755e+00   9.46330e+00   6.83743e+00 -7.56895e-01  -1.13548e-01   2.60130e-01
Si    6.76231e+00   9.52534e+00   9.55956e+00 -2.10155e-02  -6.93667e-01  -2.62227e-01
Si    9.44473e+00   6.76803e+00   9.59060e+00  4.74037e-01   7.88138e-01  -7.74132e-02
