64
Lattice="10.862 0 0 0 10.862 0 0 0 10.862 " PBC="1 1 1" Properties=species:S:1:pos:R:3:force:R:3 Energy="-272.71956"
Si    1.09383e+01  -5.69037e-02   1.08238e+01 -3.09470e-01  -1.00352e-01   1.81430e-01
Si    2.65895e+00   2.67815e+00   1.60483e-02 -1.10123e-01   5.25744e-01  -1.75596e-01
Si    1.08439e+01   2.69332e+00   2.70505e+00  6.16359e-01  -7.15324e-02   1.01457e+00
Si    2.71197e+00   3.54803e-02   2.71201e+00 -6.30633e-01  -1.06265e+00   1.82104e-01
Si    1.32447e+00   1.33118e+00   1.38955e+00  1.63575e-01  -1.41510e-02  -4.88640e-01
Si    3.99060e+00   4.14892e+00   1.28090e+00 -2.77941e-01  -1.32324e-01   1.10817e+00
Si    1.33930e+00   3.98439e+00   4.17130e+00 -5.53472e-01   9.58143e-01  -1.51128e+00
Si    4.01428e+00   1.35934e+00   4.02679e+00  1.10377e+00   5.21018e-01   1.43276e-01
Si    5.52656e+00   1.08738e+01   1.07981e+01 -1.06522e+00   8.44246e-01   2.76917e-01
Si    8.14220e+00   2.77712e+00   1.08516e+01  7.12784e-01   6.17028e-02  -2.01313e-01
Si    5.32572e+00   2.83204e+00   2.68015e+00  6.92863e-01  -8.89653e-01   6.61987e-02
Si    8.12451e+00   1.10323e+01   2.66388e+00  3.26952e-01  -1.22420e+00   4.11876e-01
Si    6.77806e+00   1.46987e+00   1.30220e+00 -7.84868e-01   9.03353e-02   4.09878e-01
Si    9.59969e+00   4.04471e+00   1.36771e+00 -1.25648e+00   3.98469e-01  -3.92625e-01
Si    6.80576e+00   4.04746e+00   4.10594e+00 -2.84553e-01   2.95194e-01  -8.86403e-01
Si    9.46323e+00   1.43446e+00   4.11050e+00  3.93562e-01  -8.36390e-01  -8.35512e-02
Si    1.09064e+01   5.41725e+00   1.09015e+01 -3.70742e-01   7.90572e-01  -7.42074e-01
Si    2.78015e+00   8.11668e+00   8.81677e-03 -3.16351e-01   8.36010e-01   5.31688e-03
Si   -2.34131e-02   8.18216e+00   2.68870e+00  8.66287e-01   6.59463e-01   2.87117e-01
Si    2.68015e+00   5.44251e+00   2.80932e+00 -2.78895e-01  -7.79193e-01  -7.27380e-01
Si    1.40006e+00   6.82753e+00   1.43010e+00 -3.51052e-01  -3.38730e-01  -6.89452e-01
Si    4.13771e+00   9.60119e+00   1.32896e+00 -1.59674e-01  -9.40441e-01   1.49302e-01
Si    1.27068e+00   9.56490e+00   4.16203e+00  6.07631e-01  -3.97965e-01  -5.86771e-01
Si    4.03044e+00   6.85987e+00   3.99535e+00  7.64864e-01  -1.34100e-01   6.11477e-01
Si    5.47382e+00   5.47790e+00   1.12179e-01 -7.30439e-01   6.00188e-01  -1.09087e+00
Si    8.09241e+00   8.10846e+00   5.23100e-02  1.14510e+00   2.16648e-01   1.01402e-01
Si    5.48426e+00   8.17523e+00   2.71507e+00 -4.38105e-01   7.14132e-01  -5.75580e-02
Si    8.16371e+00   5.38374e+00   2.68307e+00  6.15347e-01  -6.60092e-01   7.46044e-01
Si    6.86277e+00   6.77705e+00   1.47804e+00 -9.93869e-01   2.51535e-01  -9.11774e-01
Si    9.50957e+00   9.54124e+00   1.37398e+00 -6.15554e-01   2.46532e-01  -6.63010e-01
Si    6.81994e+00   9.58183e+00   4.05835e+00  5.57253e-01  -1.02543e-01  -4.13079e-01
Si    9.50480e+00   6.82702e+00   3.92643e+00 -1.26822e-01  -6.99002e-01   1.72368e+00
Si   -1.31417e-01   5.79034e-03   5.55584e+00  8.53914e-01   4.00462e-01  -6.38552e-01
Si    2.67342e+00   2.64216e+00   5.39711e+00  8.94312e-01   2.23846e-02   1.39415e+00
Si    1.09676e+01   2.62576e+00   8.13156e+00 -7.66003e-01   5.90893e-01   5.18109e-01
Si    2.71487e+00  -1.25635e-01   8.06560e+00  1.34800e+00   5.34390e-01   1.14882e+00
Si    1.44273e+00   1.26019e+00   6.84251e+00 -1.17298e+00   3.38514e-01  -1.33919e+00
Si    4.08227e+00   4.06824e+00   6.74278e+00 -3.01601e-01   4.07335e-01  -1.00507e+00
Si    1.35877e+00   4.06932e+00   9.47507e+00  7.30308e-01   3.13124e-01  -5.68760e-02
Si    3.99317e+00   1.36015e+00   9.50613e+00  3.11237e-01  -1.10995e+00  -2.92551e-01
Si    5.48862e+00   6.93125e-02   5.37365e+00 -4.02234e-01   2.81812e-01   9.37593e-01
Si    8.12985e+00   2.69665e+00   5.47592e+00 -6.90544e-02   5.81630e-01   7.57826e-01
Si    5.30907e+00   2.77364e+00   8.19732e+00  9.02425e-01  -4.59310e-01   6.80801e-02
Si    8.14967e+00   5.59842e-03   8.20840e+00  2.68465e-01  -2.55362e-01   2.97966e-01
Si    6.78324e+00   1.40468e+00   6.92257e+00 -5.23672e-01  -1.62223e-01  -8.77681e-01
Si    9.54715e+00   4.02582e+00   6.84747e+00 -4.13145e-01   1.28368e-01  -4.19232e-01
Si    6.69710e+00   4.10659e+00   9.55829e+00  3.68045e-01  -1.41226e-01  -3.75626e-01
Si    9.56657e+00   1.36932e+00   9.55840e+00 -3.69848e-01  -1.81927e-01  -4.35601e-01
Si    1.08241e+01   5.42126e+00   5.40045e+00 -2.19347e-01   2.23605e-03   6.35173e-02
Si    2.72350e+00   8.11986e+00   5.43833e+00 -2.35842e-01   9.47613e-01  -4.51050e-03
Si    1.08478e+01   8.05246e+00   8.18419e+00 -3.70807e-01  -5.34778e-01  -8.27402e-01
Si    2.78723e+00   5.47305e+00   8.09140e+00 -7.60834e-01  -1.34315e+00   5.56017e-01
Si    1.38694e+00   6.70531e+00   6.75902e+00 -7.12274e-01   9.57184e-01   3.78583e-02
Si    4.18384e+00   9.50051e+00   6.75496e+00 -4.03221e-01  -4.15557e-01  -5.95314e-01
Si    1.39524e+00   9.41468e+00   9.40446e+00 -4.15077e-02  -1.14932e-01   1.39841e+00
Si    4.07447e+00   6.79080e+00   9.46834e+00  1.05444e+00  -2.87225e-01   8.62059e-01
Si    5.43259e+00   5.49054e+00   5.31054e+00 -4.21227e-01  -6.42534e-01   8.00863e-01
Si    8.21251e+00   8.19313e+00   5.39560e+00 -9.04120e-01  -9.37215e-01  -5.79832e-01
Si    5.46619e+00   8.08065e+00   8.11076e+00  6.93510e-01   2.67481e-01  -3.31426e-02
Si    8.04851e+00   5.38739e+00   8.11599e+00  6.33983e-01  -1.01563e+00   1.85471e-01
Si    6.85281e+00   6.71214e+00   6.70568e+00 -7.10135e-01   1.39090e+00  -2.87658e-01
Si    9.45263e+00   9.43265e+00   6.84811e+00  4.75505e-01   5.35211e-01   7.22937e-01
Si    6.81739e+00   9.44657e+00   9.54202e+00 -2.50631e-01  -1.28979e-02  -9.47435e-01
Si    9.34966e+00   6.70827e+00   9.47221e+00  1.60225e+00   2.87765e-01   1.16862e+00
