64
Lattice="10.862 0 0 0 10.862 0 0 0 10.862 " PBC="1 1 1" Properties=species:S:1:pos:R:3:force:R:3 Energy="-272.82191"
Si    1.08501e+01   9.31765e-03   1.08756e+01  4.98476e-01  -6.95004e-01   3.70573e-01
Si    2.75747e+00   2.71317e+00  -2.73666e-02 -1.03715e+00   4.76224e-01   5.84580e-01
Si    1.09018e+01   2.83073e+00   2.66059e+00 -6.88248e-01  -5.50157e-01   9.47548e-01
Si    2.68290e+00  -6.16524e-02   2.71885e+00  1.12170e-01   1.87515e+00  -2.84474e-01
Si    1.28074e+00   1.43202e+00   1.35359e+00  1.61428e+00  -1.02650e+00  -1.31163e-01
Si    4.15226e+00   4.07564e+00   1.29469e+00 -5.57185e-01   1.46650e-01   1.20253e-01
Si    1.41110e+00   4.13155e+00   4.05985e+00 -1.17879e+00   7.21022e-02   3.72071e-01
Si    4.02406e+00   1.43507e+00   4.07660e+00 -4.99871e-01  -5.12107e-01  -2.56804e-01
Si    5.40933e+00   1.08626e+01   1.07705e+01  7.53737e-01  -1.26398e-01   1.18010e+00
Si    8.00572e+00   2.63491e+00   1.09366e+01  1.08092e+00  -1.14285e-01  -5.51235e-01
Si    5.40268e+00   2.76522e+00   2.74357e+00  2.90840e-01   2.33035e-01   4.88480e-01
Si    8.16797e+00   1.07445e+01   2.78389e+00 -7.10700e-01   9.01920e-01  -3.36916e-01
Si    6.70016e+00   1.31909e+00   1.46757e+00  3.71165e-01  -1.01619e+00  -2.93639e-01
Si    9.42043e+00   4.02327e+00   1.34512e+00 -1.92822e-02   6.72881e-01  -1.68711e-01
Si    6.71738e+00   4.19578e+00   4.15458e+00  1.73983e-01  -8.94773e-01  -2.94452e-01
Si    9.56417e+00   1.36593e+00   4.00594e+00 -6.43404e-01   6.38021e-01   4.38599e-01
Si    1.07856e+01   5.46153e+00   1.08932e+01  6.60206e-02  -1.62708e-01  -3.41045e-01
Si    2.76080e+00   8.16005e+00   7.54352e-02 -1.15232e+00   4.39534e-01  -1.53128e+00
Si    8.58988e-03   8.18996e+00   2.70879e+00  4.59354e-01  -9.59407e-01   3.81894e-01
Si    2.77235e+00   5.35175e+00   2.72508e+00  3.73474e-01   1.24324e+00  -8.77554e-01
Si    1.39662e+00   6.76585e+00   1.34161e+00 -3.55032e-01  -3.34314e-02   9.37914e-01
Si    4.07527e+00   9.54075e+00   1.33862e+00  5.12945e-01  -3.19467e-02   2.60425e-01
Si    1.42016e+00   9.49774e+00   4.12989e+00 -4.96998e-01  -7.04067e-01  -1.32101e+00
Si    4.11042e+00   6.74811e+00   4.09251e+00 -1.41974e-01   4.23551e-01  -1.27218e-01
Si    5.46631e+00   5.45785e+00  -7.99130e-02 -6.03889e-01  -2.26988e-01   1.26223e-01
Si    8.19971e+00   8.14698e+00  -7.45390e-02 -5.98454e-01   1.07132e-01  -2.90886e-02
Si    5.44389e+00   8.14921e+00   2.66361e+00 -2.66856e-01  -5.60993e-01   1.52565e-01
Si    8.11587e+00   5.42711e+00   2.69778e+00 -3.28558e-01   2.24382e-01  -8.14116e-02
Si    6.78408e+00   6.79769e+00   1.24099e+00  6.36563e-01   2.01470e-01   9.43491e-01
Si    9.49251e+00   9.47560e+00   1.34079e+00  2.64007e-01   2.01816e-01  -4.11447e-02
Si    6.74727e+00   9.40681e+00   4.13553e+00  8.86131e-01  -1.21375e-01  -3.60244e-01
Si    9.52760e+00   6.71911e+00   4.06579e+00 -5.34188e-01   1.34869e+00  -6.08089e-01
Si    7.99910e-02  -2.93521e-03   5.32758e+00 -6.39819e-01   5.19574e-01   1.08009e+00
Si    2.67401e+00   2.82286e+00   5.45837e+00  6.97437e-01  -9.57631e-01   3.89515e-01
Si    1.07876e+01   2.66640e+00   8.10977e+00  1.41006e-01  -4.83865e-01   6.27579e-01
Si    2.72958e+00   4.03162e-02   8.17195e+00  2.05278e-01   7.07776e-01  -2.13507e-01
Si    1.37588e+00   1.33268e+00   6.77062e+00 -2.88174e-01   6.20354e-01  -7.34277e-02
Si    4.08727e+00   4.06028e+00   6.89923e+00 -4.44265e-01  -9.73464e-02  -5.30979e-01
Si    1.22864e+00   4.03366e+00   9.54664e+00  8.03682e-01  -3.96701e-03  -2.18469e-01
Si    4.10754e+00   1.40948e+00   9.52332e+00 -2.56723e-01  -4.93384e-01  -1.03916e+00
Si    5.37624e+00  -2.44030e-02   5.33128e+00  1.84791e-01   3.75439e-01   1.38814e+00
Si    8.09262e+00   2.74259e+00   5.44672e+00  1.06875e+00  -2.11267e-01  -1.13950e+00
Si    5.47858e+00   2.65788e+00   8.09707e+00  3.78803e-01  -1.15668e-01   4.43049e-01
Si    8.19217e+00  -1.01098e-01   8.12577e+00  4.48124e-01   5.37972e-01  -5.08048e-01
Si    6.86102e+00   1.26124e+00   6.73879e+00 -1.00741e+00   1.62937e-02   1.14913e-01
Si    9.55886e+00   4.09067e+00   6.70707e+00 -8.95771e-01   2.92548e-01   8.78242e-01
Si    6.77890e+00   4.03678e+00   9.51163e+00  2.50614e-01  -1.41605e-01  -4.65607e-01
Si    9.46612e+00   1.24012e+00   9.59420e+00 -7.80926e-01   1.58034e+00  -1.17555e+00
Si    1.08936e+01   5.52698e+00   5.41729e+00  6.06265e-01  -1.35699e+00  -7.24655e-02
Si    2.72752e+00   8.14264e+00   5.43132e+00  8.76265e-01  -8.19214e-03   2.39015e-01
Si    1.09540e+01   8.19000e+00   8.18081e+00 -2.62571e-01  -1.58473e-01  -1.73341e+00
Si    2.71630e+00   5.36696e+00   8.24177e+00 -1.08842e+00   6.02425e-01  -5.46704e-01
Si    1.40069e+00   6.81442e+00   6.76299e+00  2.44612e-01  -4.36508e-01   1.33030e+00
Si    4.03152e+00   9.55224e+00   6.83348e+00 -1.15761e-01   6.63171e-02  -1.33677e+00
Si    1.36734e+00   9.57813e+00   9.43488e+00  6.79672e-01  -5.54442e-01   2.27602e+00
Si    4.02478e+00   6.80628e+00   9.51771e+00  2.71878e-01  -1.05586e-01   2.14329e-01
Si    5.39241e+00   5.47633e+00   5.61298e+00  2.27807e-01   1.70189e-01  -8.93572e-01
Si    8.16188e+00   8.03663e+00   5.50841e+00  4.50440e-01   1.05050e+00  -1.07992e+00
Si    5.29602e+00   8.19599e+00   8.14906e+00  1.26746e+00  -3.40301e-01   3.68414e-01
Si    8.17101e+00   5.42852e+00   8.19632e+00  2.02950e-02  -1.12500e-01  -1.02949e+00
Si    6.76915e+00   6.86928e+00   6.87582e+00 -2.16810e-01  -1.06919e+00   8.12155e-01
Si    9.60672e+00   9.48658e+00   6.71594e+00 -2.66213e-01  -2.36672e-01   4.12062e-01
Si    6.80292e+00   9.48780e+00   9.42546e+00 -5.95224e-01  -3.10296e-01   6.70860e-01
Si    9.56274e+00   6.85848e+00   9.41089e+00 -2.46253e-01  -8.15319e-01   1.14267e+00
