64
Lattice="10.862 0 0 0 10.862 0 0 0 10.862 " PBC="1 1 1" Properties=species:S:1:pos:R:3:force:R:3 Energy="-272.58479"
Si    1.08730e+01   5.21768e-02   1.09488e+01 -3.41716e-01  -2.39369e-01  -3.16909e-01
Si    2.84349e+00   2.61734e+00  -3.84445e-02 -4.01405e-01   1.20903e+00  -3.78563e-01
Si    1.07982e+01   2.70536e+00   2.67468e+00  2.77235e-01   5.45199e-01   6.93241e-02
Si    2.74385e+00   1.35807e-02   2.71792e+00 -8.44031e-01  -1.23137e-01  -4.17627e-01
Si    1.40100e+00   1.46614e+00   1.30995e+00 -2.15792e-02  -1.29322e+00   1.16893e+00
Si    4.20840e+00   4.01298e+00   1.28131e+00 -2.12618e-01   9.48852e-01  -1.91560e-01
Si    1.31597e+00   4.05106e+00   4.02740e+00  8.86972e-01  -1.10332e+00   2.65946e-01
Si    4.06610e+00   1.31698e+00   4.08901e+00  3.05714e-01   6.56603e-01   4.06652e-01
Si    5.45423e+00   1.08121e+01   1.09412e+01  1.07922e-01  -6.12088e-02  -8.48789e-01
Si    8.13333e+00   2.64056e+00   1.08856e+01  1.84178e-01   8.86302e-01  -1.55262e-01
Si    5.43472e+00   2.72915e+00   2.78227e+00 -8.58648e-02  -1.29026e+00  -9.19819e-01
Si    8.19829e+00   1.08473e+01   2.84259e+00 -1.18363e+00  -4.74454e-01  -4.21318e-01
Si    6.81664e+00   1.30467e+00   1.43501e+00 -2.13584e-01   2.55453e-01   3.87302e-01
Si    9.44228e+00   4.15073e+00   1.37853e+00 -8.24286e-02  -5.05413e-01  -5.70558e-01
Si    6.72187e+00   4.06410e+00   4.06817e+00  1.16581e+00   9.49136e-01   1.13060e+00
Si    9.49268e+00   1.38090e+00   4.10754e+00  4.66798e-01   3.96789e-01  -2.46361e-01
Si    1.08088e+01   5.47113e+00   1.07920e+01  4.93555e-01  -4.42035e-02   1.46140e+00
Si    2.65669e+00   8.18424e+00   5.05762e-02  3.13083e-01   6.27957e-02  -8.99295e-01
Si   -1.88773e-02   8.12119e+00   2.68676e+00  8.11110e-01  -5.16496e-01   7.39099e-01
Si    2.76754e+00   5.30356e+00   2.70763e+00 -1.67047e-01   1.35778e-01  -1.06792e+00
Si    1.43764e+00   6.74251e+00   1.34446e+00 -1.34368e+00  -3.77254e-01   4.33731e-01
Si    4.06703e+00   9.43404e+00   1.39242e+00  5.42579e-01   2.40422e-01   4.68381e-01
Si    1.31803e+00   9.53833e+00   4.08290e+00  5.04826e-01  -6.03347e-01  -9.81241e-01
Si    4.02388e+00   6.68747e+00   4.04922e+00  6.43912e-01   9.70724e-01   2.75570e-01
Si    5.53532e+00   5.52921e+00  -1.38537e-01 -1.39533e+00  -1.19230e+00   6.64425e-01
Si    8.15706e+00   8.23416e+00  -6.58788e-03  1.71082e-01   4.24789e-02   5.85267e-01
Si    5.50166e+00   8.04060e+00   2.71475e+00 -1.58442e+00   6.72421e-01   3.66143e-01
Si    8.03445e+00   5.50302e+00   2.70731e+00  4.99863e-01  -5.92935e-01   1.28761e-01
Si    6.78240e+00   6.83187e+00   1.26134e+00  7.29576e-01   1.07281e-01   2.03639e-01
Si    9.51362e+00   9.51482e+00   1.44868e+00 -1.42309e-01   4.07293e-01  -8.32613e-01
Si    6.73512e+00   9.45120e+00   4.13849e+00  1.19468e+00  -2.25402e-01  -1.07220e+00
Si    9.48376e+00   6.75745e+00   4.08975e+00 -2.30681e-01   2.73844e-01  -1.06353e+00
Si    2.21373e-02   5.22426e-02   5.37285e+00 -4.18166e-01  -2.00464e-01   4.88947e-01
Si    2.75015e+00   2.71700e+00   5.50000e+00 -5.46626e-01   3.07668e-01  -1.25496e+00
Si    1.08021e+01   2.71182e+00   8.16555e+00  7.64813e-01  -6.83872e-01   4.29801e-01
Si    2.64671e+00   5.24077e-02   8.16360e+00  1.72239e-01  -9.31979e-02  -1.02408e+00
Si    1.29448e+00   1.39307e+00   6.74931e+00  4.99652e-01   1.08714e-01   9.00152e-01
Si    4.11161e+00   4.13005e+00   6.77556e+00  1.36196e-01  -1.28596e+00   1.03527e+00
Si    1.29592e+00   3.99969e+00   9.58968e+00  9.95505e-01  -1.04249e-01  -7.18786e-01
Si    4.13525e+00   1.26484e+00   9.43550e+00  5.28684e-01   3.26367e-01   7.14942e-01
Si    5.45771e+00  -3.79528e-02   5.41020e+00 -1.43439e+00  -8.54994e-02   1.11258e+00
Si    8.22048e+00   2.77396e+00   5.45311e+00 -4.87847e-01   3.96001e-01  -4.81092e-01
Si    5.50851e+00   2.68871e+00   8.14409e+00 -1.40344e-01   1.84716e-01  -9.63941e-01
Si    8.13197e+00  -2.47824e-02   8.03117e+00  9.08561e-01  -5.40281e-02   4.94608e-01
Si    6.87231e+00   1.34484e+00   6.67729e+00 -9.57371e-01   4.23649e-01   7.56899e-01
Si    9.62354e+00   4.10095e+00   6.80813e+00 -1.66264e+00   4.03396e-01  -1.74862e-01
Si    6.86634e+00   4.10243e+00   9.45274e+00 -1.69875e-02  -7.88145e-01   4.58734e-01
Si    9.47923e+00   1.27431e+00   9.49804e+00 -1.62791e-01   4.37615e-01  -8.10357e-02
Si    1.08398e+01   5.37638e+00   5.32122e+00  5.25404e-01   7.11815e-01   1.16250e+00
Si    2.64631e+00   8.09782e+00   5.39490e+00  4.35796e-02  -1.31169e-01   2.80693e-02
Si    1.09022e+01   8.20861e+00   8.19286e+00  4.98138e-04   2.00151e-01  -7.99598e-01
Si    2.72634e+00   5.33420e+00   8.20072e+00 -1.47982e+00   5.71282e-01  -5.82007e-01
Si    1.29526e+00   6.74654e+00   6.77324e+00  4.81206e-01  -4.55747e-01   4.80761e-01
Si    3.93068e+00   9.45804e+00   6.81842e+00  6.24001e-01   1.25602e+00  -9.71893e-01
Si    1.35382e+00   9.63164e+00   9.53728e+00 -2.70748e-01  -1.05941e+00   5.98124e-01
Si    3.94585e+00   6.78403e+00   9.51466e+00  9.32498e-01   6.65178e-01   1.46326e-01
Si    5.42238e+00   5.47745e+00   5.48182e+00  3.91716e-01   4.97575e-02  -5.50181e-01
Si    8.15936e+00   8.11226e+00   5.41686e+00 -3.80046e-01   2.85824e-01   9.11111e-01
Si    5.29191e+00   8.23512e+00   8.19370e+00  6.29919e-01  -7.05401e-01   5.15766e-01
Si    8.18787e+00   5.47748e+00   8.15185e+00  4.56980e-01   7.29451e-01  -3.52829e-01
Si    6.70833e+00   6.88969e+00   6.88126e+00  7.16243e-01  -5.37866e-01  -4.91855e-01
Si    9.56735e+00   9.51357e+00   6.70650e+00 -2.65377e-01  -2.48767e-01   4.50859e-01
Si    6.84570e+00   9.52977e+00   9.46517e+00 -1.27039e+00   1.96091e-01   2.01661e-01
Si    9.51927e+00   6.93086e+00   9.54053e+00 -3.62728e-01  -9.37985e-01  -8.11606e-01
