64
Lattice="10.862 0 0 0 10.862 0 0 0 10.862 " PBC="1 1 1" Properties=species:S:1:pos:R:3:force:R:3 Energy="-272.86779"
Si    1.09470e+01  -2.32303e-02   1.08074e+01 -1.82574e-01  -1.81538e-01   4.57651e-01
Si    2.73882e+00   2.72223e+00  -3.94188e-02 -3.03830e-01   4.58334e-01  -1.17347e-01
Si    1.08087e+01   2.66191e+00   2.74632e+00  6.10202e-01  -1.25388e-01  -4.07729e-01
Si    2.68756e+00   2.94595e-02   2.75699e+00 -6.26708e-02  -1.65713e-01  -1.05707e+00
Si    1.39707e+00   1.40051e+00   1.27432e+00 -6.51715e-01  -4.33641e-01   1.22618e+00
Si    3.96404e+00   4.11078e+00   1.36658e+00  8.46964e-01  -1.28309e-01  -4.31685e-01
Si    1.28782e+00   4.04785e+00   4.07136e+00  5.01336e-01  -5.97860e-01   7.74794e-01
Si    4.11230e+00   1.32491e+00   4.03023e+00 -1.09846e-01   1.34253e+00   3.65798e-01
Si    5.46320e+00   1.09092e+01   1.08930e+01 -8.02911e-01  -3.46128e-01  -4.74632e-01
Si    8.19109e+00   2.77213e+00   1.07558e+01  3.66511e-01  -4.41636e-02   1.45137e+00
Si    5.43098e+00   2.82280e+00   2.65430e+00 -7.90297e-01  -9.96204e-01   2.22923e-01
Si    8.12912e+00   1.09793e+01   2.69258e+00  2.63830e-01   2.72966e-01  -7.10591e-01
Si    6.76434e+00   1.49964e+00   1.25992e+00  8.03410e-01  -2.92496e-01   7.48373e-01
Si    9.50996e+00   4.09165e+00   1.43086e+00 -3.98342e-02  -8.65455e-01  -1.03268e+00
Si    6.73273e+00   4.08041e+00   4.06992e+00  1.17773e+00  -4.81713e-02   1.79346e-01
Si    9.50559e+00   1.30110e+00   4.14595e+00 -6.25166e-01   8.97377e-01  -3.80062e-01
Si    1.08847e+01   5.36573e+00   1.08811e+01  4.27893e-01   5.22508e-01   3.19736e-01
Si    2.78551e+00   8.15464e+00  -1.19417e-02  3.64830e-02  -1.32414e+00  -6.28428e-01
Si   -4.31087e-03   8.16865e+00   2.65183e+00  6.44943e-01   5.90310e-02   1.03217e+00
Si    2.62850e+00   5.38400e+00   2.73842e+00  1.12247e-02   1.25178e+00  -1.21271e-01
Si    1.37317e+00   6.83131e+00   1.33029e+00 -7.61471e-02  -7.43513e-01  -7.24891e-02
Si    4.02013e+00   9.54867e+00   1.32458e+00  1.12143e+00   2.27569e-01   1.11332e+00
Si    1.37288e+00   9.48058e+00   4.07870e+00 -1.13677e+00   7.65172e-01   1.68718e-02
Si    3.96262e+00   6.87343e+00   4.04226e+00  4.83683e-01  -6.04077e-01  -5.93112e-01
Si    5.34729e+00   5.44610e+00  -1.41823e-02  1.97274e+00  -1.12461e+00   1.00701e+00
Si    8.11605e+00   8.23008e+00   9.74940e-02  4.04010e-01  -6.08796e-01  -4.16583e-01
Si    5.44923e+00   8.22318e+00   2.77456e+00 -8.94990e-01  -9.88863e-02  -1.01620e+00
Si    8.17344e+00   5.41533e+00   2.74963e+00 -2.99911e-01   1.15961e+00   6.69853e-01
Si    6.74441e+00   6.79291e+00   1.39750e+00  1.41085e-01   3.52922e-03   7.56194e-02
Si    9.56769e+00   9.60629e+00   1.41770e+00 -8.18078e-01   1.56848e-03  -9.09342e-01
Si    6.83730e+00   9.62335e+00   4.00386e+00 -1.60586e-01  -6.30518e-01   1.36307e+00
Si    9.58880e+00   6.86783e+00   4.13784e+00 -9.43920e-01  -8.03578e-01  -1.17840e+00
Si   -5.94815e-02  -1.47611e-02   5.48213e+00  1.08298e+00  -8.64778e-01  -4.79790e-01
Si    2.73799e+00   2.68401e+00   5.48353e+00 -5.50700e-01  -1.57659e-01  -1.02631e+00
Si    1.08718e+01   2.64612e+00   8.24607e+00  1.16713e-01   1.06511e+00  -8.75188e-01
Si    2.83179e+00  -1.51925e-01   8.16925e+00 -1.30029e+00   4.61981e-01  -1.13839e+00
Si    1.29767e+00   1.31719e+00   6.80495e+00  1.52843e+00  -5.39086e-01   8.95990e-01
Si    4.13376e+00   4.07162e+00   6.73598e+00 -6.44854e-01   4.37023e-01   3.13679e-01
Si    1.44990e+00   4.14253e+00   9.45127e+00 -9.69909e-01  -1.20385e+00   5.47226e-01
Si    4.03384e+00   1.31050e+00   9.52826e+00  6.17140e-01   1.43809e-01   9.16610e-02
Si    5.45615e+00   5.52334e-02   5.44007e+00  4.85786e-02  -6.45791e-01  -1.42555e-01
Si    8.13383e+00   2.68362e+00   5.48419e+00 -8.90334e-01   2.24659e-01  -3.39417e-01
Si    5.32985e+00   2.81509e+00   8.28681e+00  7.82459e-01  -6.02818e-01  -8.39707e-01
Si    8.10885e+00  -7.64445e-02   8.17780e+00  9.70924e-02   1.36966e+00  -4.92918e-01
Si    6.66152e+00   1.44923e+00   6.88570e+00  1.15117e+00  -7.58954e-01   2.50373e-01
Si    9.44356e+00   4.01793e+00   6.85942e+00  1.68747e+00   1.98990e-01  -4.84596e-01
Si    6.87009e+00   4.12008e+00   9.47251e+00 -1.91807e+00   1.44075e-01   9.02762e-01
Si    9.52004e+00   1.30422e+00   9.53979e+00 -4.10271e-01  -4.35861e-01  -4.37760e-01
Si    1.08739e+01   5.45234e+00   5.44554e+00 -8.63597e-01  -1.37531e+00   1.65040e-01
Si    2.67595e+00   8.16423e+00   5.43163e+00  5.76084e-01   1.86635e-02  -3.29358e-01
Si    1.08325e+01   8.02189e+00   8.10714e+00  3.87912e-01  -5.01434e-01   5.59875e-01
Si    2.78405e+00   5.43368e+00   8.11075e+00  1.42637e-01   4.58880e-02  -9.39013e-01
Si    1.43084e+00   6.72662e+00   6.66875e+00 -5.58632e-01   4.32448e-01   1.96427e+00
Si    4.18877e+00   9.36488e+00   6.71364e+00 -4.68383e-01   1.17416e+00   5.60676e-01
Si    1.37227e+00   9.36799e+00   9.48336e+00 -7.14023e-03   5.30362e-01  -4.88658e-01
Si    4.17536e+00   6.69647e+00   9.45949e+00 -1.57342e+00   1.94251e+00  -1.64459e-01
Si    5.35200e+00   5.47899e+00   5.29429e+00  2.69579e-01  -1.00773e-01   8.76939e-01
Si    8.15840e+00   8.17220e+00   5.41740e+00 -4.07963e-01   4.47766e-01  -1.50713e-01
Si    5.50448e+00   8.05847e+00   8.11344e+00 -7.12890e-02   1.68628e-01   1.88348e-01
Si    8.14419e+00   5.40335e+00   8.13779e+00 -1.23747e-01   1.02286e+00  -4.47858e-01
Si    6.77174e+00   6.74056e+00   6.69547e+00  6.40856e-01  -1.18284e-01   1.35770e-01
Si    9.52212e+00   9.46693e+00   6.81831e+00 -6.94489e-01  -1.43188e-01   1.76305e-01
Si    6.73760e+00   9.50686e+00   9.50701e+00  2.65034e-01  -5.27272e-01   4.91828e-01
Si    9.44610e+00   6.68467e+00   9.62309e+00  1.44719e-01   1.34769e+00  -8.20536e-01
