64
Lattice="10.862 0 0 0 10.862 0 0 0 10.862 " PBC="1 1 1" Properties=species:S:1:pos:R:3:force:R:3 Energy="-272.27097"
Si    1.08222e+01   3.37954e-02   1.09584e+01  7.48833e-01  -3.06942e-01  -5.40574e-01
Si    2.78138e+00   2.64353e+00  -3.97394e-03  3.15941e-01   7.67260e-01   7.22472e-01
Si    1.07930e+01   2.71200e+00   2.59688e+00 -1.10268e-01   5.71247e-01   2.46606e+00
Si    2.73579e+00  -3.69880e-03   2.70204e+00  4.66618e-01   9.24110e-01   2.20011e-01
Si    1.40372e+00   1.43189e+00   1.43734e+00 -2.08735e-01  -1.19691e+00  -1.24846e+00
Si    4.17018e+00   4.17868e+00   1.26366e+00  1.98216e-01  -9.60603e-01  -2.98129e-01
Si    1.33658e+00   4.04333e+00   4.10317e+00 -6.46452e-01  -9.64648e-02  -9.16595e-01
Si    4.10816e+00   1.41204e+00   4.06994e+00 -6.63495e-01  -4.50323e-01  -4.01623e-01
Si    5.49145e+00   1.09053e+01   1.08222e+01  3.88174e-01  -8.13784e-01   1.25631e+00
Si    8.14883e+00   2.71232e+00   1.08786e+01  9.76405e-02   4.12619e-01  -9.16110e-01
Si    5.47225e+00   2.76154e+00   2.69909e+00 -1.44348e-01   5.95511e-01   5.81779e-02
Si    8.14309e+00   1.07938e+01   2.83458e+00  7.70177e-02   1.48350e+00  -6.24952e-01
Si    6.87203e+00   1.41992e+00   1.41790e+00 -5.97551e-01  -1.42586e+00  -8.49687e-02
Si    9.42242e+00   4.13818e+00   1.36518e+00  2.02041e-01   8.32454e-01  -3.37310e-01
Si    6.81001e+00   4.12257e+00   4.09509e+00 -7.96568e-01   3.27888e-01   3.90935e-01
Si    9.48941e+00   1.34816e+00   4.15362e+00 -1.10290e-01   8.43751e-01  -1.13614e+00
Si    1.09154e+01   5.44163e+00   1.08264e+01 -9.13927e-01  -1.19330e+00   4.16577e-01
Si    2.69740e+00   8.11024e+00  -3.10841e-02 -1.04787e-01  -1.46430e-01   1.18290e-01
Si    8.46210e-02   8.09311e+00   2.76003e+00 -6.49867e-01  -1.49530e-01  -9.23702e-01
Si    2.77107e+00   5.34301e+00   2.69235e+00 -6.02869e-01   3.43548e-01   2.99246e-01
Si    1.39695e+00   6.67015e+00   1.33172e+00  2.38389e-01   1.16877e+00   6.23160e-01
Si    4.00309e+00   9.51926e+00   1.31514e+00  4.04502e-01   9.80430e-01  -1.28039e+00
Si    1.43918e+00   9.49362e+00   3.99746e+00 -6.96932e-01   6.34713e-02   1.37759e+00
Si    4.02926e+00   6.82484e+00   3.99744e+00  1.38273e-01   1.67163e-01  -1.43385e-01
Si    5.49904e+00   5.63647e+00  -1.24471e-01 -4.51906e-01  -1.19955e+00   9.88922e-01
Si    8.18685e+00   8.16720e+00   7.02217e-02  3.34412e-01   1.08246e+00  -1.66019e+00
Si    5.31457e+00   8.28032e+00   2.64404e+00  1.21308e+00  -7.64886e-01   1.23484e+00
Si    8.02412e+00   5.58089e+00   2.74347e+00  8.87850e-01  -6.75736e-01  -7.29878e-01
Si    6.74909e+00   6.97664e+00   1.32053e+00 -5.17838e-01  -8.68976e-01   7.56519e-01
Si    9.49111e+00   9.50831e+00   1.46600e+00  8.13086e-01  -4.84822e-01  -5.02533e-02
Si    6.75202e+00   9.53935e+00   4.11864e+00 -8.35214e-01  -9.11543e-01  -2.75395e-01
Si    9.49033e+00   6.79891e+00   4.09852e+00 -7.15848e-01   8.72484e-01  -1.91324e-02
Si    5.08347e-02   4.51214e-02   5.37575e+00 -5.49071e-02  -1.70726e+00   8.89048e-01
Si    2.66596e+00   2.66658e+00   5.45259e+00  2.19094e-01   1.36183e-01   4.54661e-01
Si    1.07940e+01   2.57840e+00   8.17849e+00 -3.39413e-02   1.66234e+00   3.11726e-01
Si    2.67701e+00  -3.47813e-02   8.18447e+00  5.34153e-01   1.51823e-01  -4.33927e-01
Si    1.27310e+00   1.32923e+00   6.88652e+00  1.38579e+00  -3.42894e-01  -1.26950e+00
Si    4.10612e+00   4.05665e+00   6.75047e+00 -2.82363e-01   8.82553e-02  -6.89253e-01
Si    1.32430e+00   3.90625e+00   9.57370e+00 -5.34054e-02   4.08250e-01  -8.24394e-01
Si    4.10248e+00   1.27719e+00   9.52661e+00  1.49719e-03   1.10252e+00  -1.38185e+00
Si    5.36276e+00  -1.16110e-02   5.41504e+00  2.99249e-01   3.15342e-01   1.00214e+00
Si    8.12874e+00   2.74259e+00   5.50028e+00  3.37049e-01   2.22114e-01  -1.07463e+00
Si    5.44433e+00   2.72850e+00   8.08246e+00  8.36728e-02  -4.72966e-01   1.20847e+00
Si    8.20514e+00  -3.66368e-02   8.07648e+00 -5.32798e-01   6.18680e-02  -3.31527e-01
Si    6.82460e+00   1.38030e+00   6.75498e+00 -8.54998e-01  -1.14496e+00   3.06382e-01
Si    9.47168e+00   4.03779e+00   6.85491e+00  6.95962e-01  -4.23519e-02  -1.77736e-01
Si    6.77995e+00   4.12581e+00   9.50627e+00  4.13666e-01  -5.26440e-01  -2.97053e-01
Si    9.45824e+00   1.27313e+00   9.46121e+00 -6.42460e-02   3.41699e-01   1.60985e+00
Si    1.07495e+01   5.41841e+00   5.41775e+00  1.07661e+00  -8.70769e-01   5.29501e-01
Si    2.67448e+00   8.06609e+00   5.42239e+00  9.43668e-02   3.15613e-01  -4.01730e-01
Si    1.10172e+01   8.14880e+00   8.14792e+00 -6.41962e-01  -1.29141e+00  -3.62983e-01
Si    2.69604e+00   5.23236e+00   8.15790e+00 -8.96392e-02   7.06841e-01   1.82147e-01
Si    1.41477e+00   6.63222e+00   6.75477e+00 -8.42692e-01   4.68230e-01   5.19951e-01
Si    3.98560e+00   9.42449e+00   6.78597e+00  5.12033e-01   7.99640e-01  -3.62947e-02
Si    1.36511e+00   9.50880e+00   9.51044e+00 -3.72253e-01   4.52438e-01   1.36868e+00
Si    4.00790e+00   6.76630e+00   9.41812e+00 -7.96600e-02   2.79395e-01  -1.55434e-01
Si    5.39211e+00   5.58600e+00   5.40447e+00  2.54362e-01  -1.66078e+00  -5.29996e-02
Si    8.05996e+00   8.15750e+00   5.48220e+00  1.60228e+00   3.51957e-01  -5.93845e-01
Si    5.41891e+00   8.14687e+00   8.14209e+00 -2.91692e-01   1.71303e-01  -1.65266e-01
Si    8.22685e+00   5.43781e+00   8.18922e+00 -1.05647e+00   8.61489e-01  -2.50061e-01
Si    6.76797e+00   6.83522e+00   6.78166e+00  3.30213e-01  -9.41620e-01   1.15433e+00
Si    9.59182e+00   9.42111e+00   6.83416e+00 -8.51357e-02   7.96550e-01  -1.44299e+00
Si    6.83178e+00   9.53674e+00   9.41632e+00  2.19678e-02  -6.33587e-01   1.19988e+00
Si    9.59515e+00   6.83653e+00   9.52488e+00 -2.82970e-01   1.50187e-01  -1.37208e-01
