64
Lattice="10.862 0 0 0 10.862 0 0 0 10.862 " PBC="1 1 1" Properties=species:S:1:pos:R:3:force:R:3 Energy="-272.26964"
Si    1.08706e+01   2.89553e-02   1.09290e+01  6.14112e-01  -1.48478e+00  -9.47686e-02
Si    2.80209e+00   2.68827e+00  -1.84887e-02 -4.71347e-01  -3.72951e-02   1.24093e+00
Si    1.07910e+01   2.70054e+00   2.72458e+00  7.07847e-01   1.03337e+00  -9.92780e-03
Si    2.66410e+00   3.09342e-03   2.64927e+00  1.78973e-01   1.60259e-01   9.99990e-01
Si    1.32295e+00   1.38140e+00   1.38936e+00  5.39650e-01   6.48213e-01  -6.13150e-01
Si    4.12779e+00   4.15913e+00   1.31920e+00  4.51342e-01  -1.62550e+00   3.15262e-01
Si    1.41483e+00   4.11218e+00   4.04001e+00 -8.50019e-01  -4.16786e-01  -3.36364e-01
Si    4.06418e+00   1.34322e+00   4.01236e+00 -5.05150e-02   3.56630e-01   3.01344e-01
Si    5.45958e+00   1.08707e+01   1.07333e+01 -8.59570e-03   1.15138e-01   1.86052e+00
Si    8.10134e+00   2.77809e+00   1.08094e+01 -2.18381e-01  -1.05243e+00   8.97065e-01
Si    5.51893e+00   2.75967e+00   2.75943e+00 -6.97098e-01   7.31265e-01  -1.82231e-01
Si    8.11590e+00   1.08307e+01   2.84049e+00  5.55363e-02   8.18445e-01  -9.01930e-01
Si    6.75986e+00   1.33079e+00   1.37351e+00  8.46774e-01   1.78522e-01  -3.52929e-01
Si    9.45768e+00   4.08903e+00   1.32675e+00 -6.19353e-01   2.28094e-01   9.20236e-01
Si    6.84540e+00   4.27046e+00   4.12540e+00 -1.00435e+00  -1.07537e+00  -4.34225e-01
Si    9.51141e+00   1.37454e+00   4.11361e+00 -6.55698e-01  -4.22640e-02   1.49360e-01
Si    1.09097e+01   5.31815e+00   1.08960e+01 -4.99643e-02   3.14374e-01  -1.07885e+00
Si    2.73986e+00   8.17699e+00  -1.97571e-02  7.29727e-02  -1.23186e+00   9.86764e-01
Si    4.05011e-02   8.04984e+00   2.82956e+00 -1.97198e-01   8.00333e-01  -1.08090e+00
Si    2.81529e+00   5.46142e+00   2.65485e+00 -1.33143e+00  -2.19820e-01   4.84405e-01
Si    1.33425e+00   6.72066e+00   1.35547e+00  9.08961e-01   9.12413e-01  -7.95421e-02
Si    4.04584e+00   9.62462e+00   1.30833e+00  2.46667e-01  -6.78663e-01  -6.39992e-01
Si    1.39332e+00   9.47053e+00   4.08567e+00 -1.01960e-02   2.53352e-01  -5.86770e-01
Si    4.01766e+00   6.80583e+00   4.06924e+00  1.29903e+00  -1.99566e-01  -3.36423e-01
Si    5.45814e+00   5.45340e+00  -2.41698e-02 -7.89690e-01   1.36266e+00  -5.66407e-01
Si    8.27134e+00   8.24640e+00  -2.35674e-02 -7.75690e-01   1.07975e-01  -3.11018e-01
Si    5.32187e+00   8.23525e+00   2.68482e+00  4.50594e-01   1.04200e-01   5.40211e-01
Si    8.04164e+00   5.61094e+00   2.62578e+00  1.19059e+00  -3.23730e-01   1.35209e-01
Si    6.69513e+00   7.00599e+00   1.24063e+00  6.81060e-01  -7.29742e-01   3.85497e-01
Si    9.55052e+00   9.55387e+00   1.48974e+00  2.16194e-01  -7.57095e-01  -6.74443e-02
Si    6.73887e+00   9.50859e+00   4.13646e+00 -2.75508e-01  -5.19596e-01  -2.57328e-01
Si    9.51951e+00   6.76822e+00   4.15023e+00 -7.14358e-01  -5.12973e-01  -4.17965e-01
Si    5.60821e-02   5.64092e-03   5.37821e+00 -1.52487e-01  -2.92041e-01   4.80835e-01
Si    2.68393e+00   2.70500e+00   5.39769e+00  3.75309e-01  -5.37056e-01   3.37469e-01
Si    1.07799e+01   2.64206e+00   8.21629e+00  3.92571e-01  -8.27467e-01  -4.02410e-01
Si    2.74187e+00  -2.86777e-02   8.14883e+00 -2.57480e-01  -2.10889e-01   6.61357e-01
Si    1.35599e+00   1.29281e+00   6.81203e+00 -1.96334e-01   9.80920e-01  -1.91902e-02
Si    4.05466e+00   4.00570e+00   6.81701e+00  3.62669e-01  -1.37678e-01  -5.75976e-01
Si    1.38036e+00   3.90130e+00   9.50204e+00 -2.08397e-01   1.37441e+00  -5.72308e-02
Si    4.13297e+00   1.36580e+00   9.51898e+00 -3.62154e-01   1.44799e-04  -1.47086e+00
Si    5.35900e+00  -1.38083e-02   5.45281e+00  4.39415e-01   4.60162e-01  -4.68595e-01
Si    8.10226e+00   2.76302e+00   5.42839e+00  5.28497e-01  -2.33470e-01   2.53773e-01
Si    5.51248e+00   2.70840e+00   8.14214e+00 -8.69707e-01  -6.49870e-01  -4.05853e-01
Si    8.20387e+00  -3.09977e-02   8.15628e+00  3.24714e-01  -3.18470e-01  -8.77074e-01
Si    6.82596e+00   1.28423e+00   6.76745e+00 -2.15745e-01   6.17430e-01   1.80816e-01
Si    9.46477e+00   4.04656e+00   6.86761e+00 -4.40742e-01  -1.06165e-01   1.08387e-01
Si    6.71669e+00   4.10365e+00   9.49163e+00  1.34638e+00   4.18457e-01  -3.07058e-01
Si    9.46543e+00   1.25669e+00   9.62729e+00 -2.02311e-01   1.24429e+00  -9.63565e-01
Si    1.08200e+01   5.32042e+00   5.48828e+00  3.65285e-01   4.76787e-01  -7.05479e-01
Si    2.69735e+00   8.08045e+00   5.38141e+00 -6.18276e-01   4.12107e-01   9.76549e-01
Si    1.09143e+01   8.05798e+00   8.18435e+00  2.19326e-01   5.95066e-01  -9.18805e-01
Si    2.66897e+00   5.33246e+00   8.08311e+00  2.59172e-02   5.55995e-01   1.08333e+00
Si    1.31858e+00   6.72114e+00   6.75515e+00  4.48610e-01  -8.04948e-02   7.40449e-02
Si    4.00711e+00   9.49284e+00   6.71557e+00  4.65415e-01  -8.86848e-01   9.45747e-01
Si    1.37999e+00   9.39273e+00   9.53852e+00 -6.07624e-01   2.12157e+00  -3.86824e-01
Si    4.04835e+00   6.82231e+00   9.41805e+00 -2.55757e-01  -1.39033e+00   6.40291e-01
Si    5.36044e+00   5.46806e+00   5.50997e+00  3.86313e-01   3.75366e-01  -4.26218e-01
Si    8.16693e+00   8.16742e+00   5.44476e+00  2.02598e-01   2.96113e-01  -5.24792e-02
Si    5.42941e+00   8.09453e+00   8.10537e+00 -5.42247e-01   1.89709e+00  -2.11658e-01
Si    8.13449e+00   5.51246e+00   8.18647e+00 -1.94747e-01  -5.58344e-01  -2.89782e-01
Si    6.79529e+00   6.87764e+00   6.78097e+00  1.74252e-01  -1.35584e+00  -3.68268e-02
Si    9.64056e+00   9.46338e+00   6.75736e+00 -8.56357e-01   2.76536e-01   6.78831e-01
Si    6.76968e+00   9.54477e+00   9.42339e+00  8.32746e-01  -1.32301e+00   2.01906e-01
Si    9.60032e+00   6.76959e+00   9.50666e+00 -6.50558e-01  -4.12253e-01   1.08392e+00
