64
Lattice="10.862 0 0 0 10.862 0 0 0 10.862 " PBC="1 1 1" Properties=species:S:1:pos:R:3:force:R:3 Energy="-272.19934"
Si    1.07256e+01  -3.24935e-02   1.08382e+01  8.96710e-01   7.87760e-01  -4.14423e-01
Si    2.59861e+00   2.74376e+00   7.98272e-02  5.43871e-01   8.37235e-01  -7.62839e-01
Si    1.08965e+01   2.66406e+00   2.67517e+00 -8.54918e-01   6.04264e-01   4.47804e-01
Si    2.72395e+00   1.63971e-02   2.69065e+00 -2.10791e-01  -1.49045e-01   5.47195e-02
Si    1.30253e+00   1.30100e+00   1.33148e+00 -1.59773e-01  -4.44295e-01  -5.64689e-03
Si    4.05002e+00   4.04519e+00   1.45916e+00  2.59432e-01  -7.70136e-01  -2.82289e-01
Si    1.30256e+00   4.06263e+00   4.10342e+00 -1.61023e-01   3.77604e-01   3.02626e-01
Si    4.05973e+00   1.38248e+00   4.07883e+00  2.29103e-01  -6.71736e-01  -1.55373e-01
Si    5.41785e+00   1.08670e+01   1.08097e+01  4.54867e-01  -5.50775e-01  -6.86567e-02
Si    8.13923e+00   2.71296e+00   1.08366e+01  4.28744e-01  -7.65943e-02   2.18472e-02
Si    5.48854e+00   2.58878e+00   2.70990e+00 -6.15704e-01   2.17273e-01  -6.18728e-01
Si    8.19989e+00   1.07398e+01   2.75757e+00 -2.90017e-01   5.24334e-01  -3.48323e-01
Si    6.87658e+00   1.23855e+00   1.37359e+00 -4.21577e-01   3.55331e-01  -5.08850e-01
Si    9.59711e+00   4.08795e+00   1.26337e+00 -3.34833e-01  -5.21595e-01   3.81008e-01
Si    6.83443e+00   3.84982e+00   4.05203e+00  3.80342e-01   1.66673e+00  -1.05720e-01
Si    9.47381e+00   1.35505e+00   4.07594e+00  7.68748e-01  -3.01399e-01  -1.20471e+00
Si    1.08862e+01   5.55523e+00   1.08234e+01  4.71803e-02  -3.34698e-02   2.93318e-01
Si    2.68493e+00   8.14840e+00  -2.96284e-02 -1.09426e-02   1.75707e-01  -6.86592e-01
Si    7.75863e-04   8.17387e+00   2.66569e+00  4.35723e-01   4.73632e-01   5.48308e-01
Si    2.73391e+00   5.36993e+00   2.80733e+00 -7.68834e-01   1.23143e+00  -3.97295e-01
Si    1.39085e+00   6.88071e+00   1.39477e+00  2.95469e-01  -1.60575e+00   5.23122e-03
Si    3.99746e+00   9.51081e+00   1.26616e+00  1.13851e+00   2.34593e-02   9.96950e-01
Si    1.39846e+00   9.50160e+00   4.07203e+00 -3.37595e-01   3.22706e-01   3.30508e-01
Si    4.09784e+00   6.74318e+00   4.14910e+00 -2.49024e-01   5.08180e-01  -7.25202e-01
Si    5.37633e+00   5.47654e+00   1.71112e-01  9.03835e-01  -4.47899e-01  -5.88148e-01
Si    8.11118e+00   7.97104e+00   7.98688e-02  9.62685e-01   7.91074e-01  -6.31441e-01
Si    5.37426e+00   8.16076e+00   2.75260e+00 -2.84634e-01  -1.84186e-01  -5.47832e-01
Si    8.21246e+00   5.30465e+00   2.72234e+00  7.20264e-03  -5.16037e-02   4.33973e-01
Si    6.85185e+00   6.76711e+00   1.53896e+00 -1.40700e+00  -6.15228e-01  -4.02351e-01
Si    9.46919e+00   9.42826e+00   1.30713e+00 -1.94855e-01  -1.52484e-01   3.37789e-01
Si    6.74947e+00   9.47742e+00   4.06231e+00  1.56651e-02   5.88391e-01   1.23323e-01
Si    9.54308e+00   6.81023e+00   3.97716e+00 -1.13231e+00   4.04134e-01   6.93413e-01
Si   -1.81159e-02   9.87405e-02   5.39994e+00  8.52117e-01  -1.08901e+00   2.34519e-01
Si    2.73276e+00   2.73881e+00   5.41609e+00 -1.25123e-01   3.84832e-01   3.68691e-01
Si    1.09174e+01   2.73529e+00   8.05973e+00 -9.10940e-01   1.98105e+00   5.90504e-01
Si    2.67111e+00   3.55740e-02   8.24657e+00 -7.08132e-02   4.73923e-01  -1.61263e+00
Si    1.35402e+00   1.43305e+00   6.76915e+00  8.88067e-01  -1.25167e+00  -1.49222e-01
Si    4.09027e+00   4.08341e+00   6.81651e+00  1.47242e-01   2.56370e-01  -9.78795e-01
Si    1.35901e+00   4.22430e+00   9.47628e+00 -2.58778e-01  -1.54785e+00   1.52963e-03
Si    3.94780e+00   1.40976e+00   9.54824e+00  9.91510e-01   1.46363e-02   4.50383e-01
Si    5.48392e+00   5.43699e-02   5.40962e+00 -1.24159e+00  -7.62937e-01   9.94976e-02
Si    8.19983e+00   2.62352e+00   5.43597e+00 -1.35948e+00   1.22715e-01   3.31552e-01
Si    5.38780e+00   2.65337e+00   8.15372e+00 -2.86054e-02   1.24344e+00   9.10552e-01
Si    8.15931e+00   2.66442e-02   8.08879e+00 -6.83039e-01  -1.85144e-02   8.17880e-01
Si    6.72363e+00   1.37130e+00   6.78021e+00  1.28632e+00  -1.07352e-01   2.01757e-01
Si    9.37907e+00   4.08362e+00   6.72587e+00  2.86408e+00  -5.34173e-01  -3.46019e-01
Si    6.75197e+00   4.12448e+00   9.55602e+00 -8.40324e-01  -8.77002e-01   6.04271e-02
Si    9.53223e+00   1.42896e+00   9.38353e+00 -5.41782e-01  -5.22556e-01   8.57877e-01
Si    1.08108e+01   5.58334e+00   5.44488e+00  7.81624e-01  -1.19096e+00   5.52802e-01
Si    2.82777e+00   8.19537e+00   5.49612e+00 -5.68691e-01   2.95095e-01  -9.89014e-03
Si    1.08033e+01   8.26234e+00   8.17268e+00  6.03365e-02  -5.08566e-01  -3.65306e-01
Si    2.66968e+00   5.49629e+00   8.06525e+00  1.44510e+00  -2.08552e-01   1.16059e+00
Si    1.39259e+00   6.93317e+00   6.87100e+00 -1.11706e+00   5.23438e-02  -1.32355e+00
Si    4.13350e+00   9.59195e+00   6.90299e+00  4.43028e-01  -3.62009e-01  -3.89700e-01
Si    1.31848e+00   9.56601e+00   9.49976e+00 -3.26399e-01  -6.42083e-01   8.84884e-01
Si    4.09826e+00   6.75207e+00   9.53721e+00 -2.39734e-01   5.02810e-01  -5.74331e-01
Si    5.51281e+00   5.37241e+00   5.31337e+00 -2.41986e-01  -9.23602e-01   1.32612e+00
Si    8.14074e+00   8.22494e+00   5.38713e+00  3.34216e-01  -1.54855e+00   3.22218e-01
Si    5.55666e+00   8.08572e+00   8.14960e+00 -1.22288e+00   3.78752e-01   5.11655e-01
Si    8.14697e+00   5.29060e+00   8.10653e+00 -1.14157e+00   2.08859e+00   7.31845e-01
Si    6.78773e+00   6.72459e+00   6.74730e+00  1.17417e+00   3.37059e-02  -4.55206e-01
Si    9.48660e+00   9.59006e+00   6.75842e+00  3.61464e-01  -2.84188e-01  -5.10886e-01
Si    6.92680e+00   9.38717e+00   9.54847e+00 -1.09671e+00   1.34275e+00  -4.17945e-01
Si    9.45917e+00   6.77312e+00   9.42778e+00  5.19646e-02  -1.04494e-01   2.01799e-01
