64
Lattice="10.862 0 0 0 10.862 0 0 0 10.862 " PBC="1 1 1" Properties=species:S:1:pos:R:3:force:R:3 Energy="-272.25341"
Si    1.07747e+01   1.54279e-01   1.09032e+01  6.02059e-01  -1.60299e+00  -3.21422e-01
Si    2.70109e+00   2.72920e+00   1.17150e-01  1.66939e-01   3.99661e-01  -1.17087e+00
Si    1.08138e+01   2.79598e+00   2.64204e+00  2.41997e-01  -8.35347e-01   1.30485e+00
Si    2.67077e+00   4.99849e-03   2.65468e+00 -4.98111e-01  -2.74151e-02   6.97753e-01
Si    1.32924e+00   1.41960e+00   1.39933e+00 -3.12249e-01  -2.03287e-01  -2.50066e-01
Si    4.11150e+00   4.00166e+00   1.48697e+00  8.72857e-01  -1.27842e-01  -5.25454e-01
Si    1.37220e+00   4.14704e+00   4.01823e+00 -4.79934e-01  -3.19641e-01   2.59878e-01
Si    4.04589e+00   1.26784e+00   4.00444e+00  3.24456e-01   9.77855e-01   1.09348e+00
Si    5.44653e+00   1.08676e+01   1.07822e+01 -5.80012e-01  -8.72715e-01   1.02504e+00
Si    8.09710e+00   2.62263e+00   1.08876e+01 -3.84640e-01   4.19456e-01  -8.42755e-01
Si    5.56868e+00   2.59359e+00   2.77651e+00 -1.15298e+00   4.23768e-01  -4.98790e-01
Si    8.13510e+00   1.06612e+01   2.74915e+00 -5.30684e-01   1.20718e+00  -5.12974e-01
Si    6.79687e+00   1.24315e+00   1.32746e+00  5.17771e-01  -5.42601e-01   9.06402e-01
Si    9.44918e+00   3.98818e+00   1.27385e+00  6.93229e-02   1.33542e+00   1.31917e-01
Si    6.84816e+00   4.08971e+00   4.03401e+00 -2.05370e-01  -7.88107e-01   1.09498e+00
Si    9.47221e+00   1.26902e+00   3.95868e+00  3.93849e-01   1.26931e+00   3.03770e-01
Si    1.08963e+01   5.38747e+00   1.08740e+01 -4.91202e-01   3.44151e-01  -2.35870e-01
Si    2.64021e+00   8.23244e+00   8.30541e-02  4.19371e-01  -1.08114e+00  -1.37245e+00
Si    4.09718e-02   8.10351e+00   2.77823e+00 -5.40755e-01  -7.80767e-02   1.48442e-01
Si    2.84870e+00   5.43491e+00   2.76316e+00 -1.79150e+00   4.22301e-01  -5.85403e-01
Si    1.32407e+00   6.80172e+00   1.40663e+00  1.21678e+00  -9.41990e-01  -1.21922e-02
Si    4.00410e+00   9.55931e+00   1.37072e+00  1.55990e+00  -3.60417e-01  -4.66237e-01
Si    1.36232e+00   9.49537e+00   4.05297e+00  7.49918e-01   3.98929e-01  -3.95806e-02
Si    4.03249e+00   6.72596e+00   4.21829e+00  1.23635e+00   1.30179e+00  -3.52708e-01
Si    5.41076e+00   5.37374e+00   3.62442e-02  5.77302e-02   2.14634e-01  -1.39887e-01
Si    8.16152e+00   8.12184e+00  -1.22383e-02  4.77754e-01   8.41834e-01  -7.91751e-02
Si    5.38714e+00   8.11491e+00   2.71743e+00 -2.22301e-01   2.98020e-02   6.55567e-01
Si    8.12185e+00   5.39437e+00   2.64259e+00  8.47363e-01   5.60857e-01   1.60115e-02
Si    6.80404e+00   6.82048e+00   1.32037e+00 -7.45379e-01  -7.13581e-01   3.09210e-01
Si    9.57220e+00   9.44425e+00   1.44399e+00 -3.61469e-01   4.69203e-02  -1.49638e+00
Si    6.79531e+00   9.41255e+00   4.16828e+00 -5.84543e-01  -2.75936e-01  -4.20297e-01
Si    9.51436e+00   6.73269e+00   4.07682e+00 -5.36026e-01   2.08178e-01  -9.29097e-01
Si    1.02947e-01   1.04522e-01   5.30473e+00 -5.75878e-01  -2.02573e-01   8.83113e-01
Si    2.72917e+00   2.78451e+00   5.37824e+00  3.01992e-01  -4.89269e-01  -1.91559e-01
Si    1.07074e+01   2.77279e+00   8.14174e+00  1.02864e+00   3.21128e-01  -4.45511e-01
Si    2.69268e+00   1.16928e-01   8.17626e+00 -1.26747e-01  -2.67277e-01  -4.43380e-01
Si    1.32112e+00   1.53292e+00   6.76699e+00  1.41458e-01  -9.35425e-01   1.54637e-01
Si    4.06840e+00   4.02967e+00   6.87038e+00  7.82408e-02   1.15143e+00  -1.13353e+00
Si    1.34142e+00   4.04924e+00   9.45810e+00  1.46738e-01  -2.77913e-02   6.00927e-01
Si    4.07674e+00   1.39002e+00   9.58568e+00 -6.85387e-02   8.78995e-01  -8.84671e-01
Si    5.39757e+00  -2.96103e-02   5.45075e+00  1.14157e-01  -2.81602e-01  -9.55903e-02
Si    8.18712e+00   2.65884e+00   5.42664e+00  7.21134e-02   4.64688e-01  -1.03283e+00
Si    5.47677e+00   2.76631e+00   8.16358e+00 -4.38069e-01  -2.37421e+00  -4.38888e-01
Si    8.18775e+00  -9.79094e-02   8.13384e+00  5.42090e-03   8.05271e-01  -8.48434e-01
Si    6.85726e+00   1.29351e+00   6.73954e+00 -9.08209e-01   4.04696e-01   1.12973e+00
Si    9.46037e+00   4.15674e+00   6.72556e+00 -1.96636e-01  -8.27514e-01   4.69381e-01
Si    6.76048e+00   4.00617e+00   9.50749e+00  6.57393e-01   8.40280e-01   1.12885e+00
Si    9.41279e+00   1.38915e+00   9.45480e+00  1.23062e-01  -5.23736e-01   3.43135e-01
Si    1.08334e+01   5.46627e+00   5.41326e+00  1.22570e+00  -6.75194e-02   1.10597e-01
Si    2.72490e+00   8.25179e+00   5.49371e+00 -1.63147e-01  -9.30318e-01  -9.96800e-01
Si    1.08166e+01   8.25478e+00   8.08871e+00  1.00408e+00  -8.72165e-01   4.96923e-01
Si    2.64211e+00   5.47297e+00   8.09023e+00  7.25195e-01  -1.32622e-01   6.68088e-01
Si    1.36000e+00   6.88723e+00   6.73740e+00 -9.36205e-01  -3.59070e-01   4.45299e-01
Si    4.04657e+00   9.49368e+00   6.85432e+00  3.96697e-01   1.20718e+00   3.78527e-01
Si    1.32634e+00   9.56927e+00   9.49835e+00 -5.87037e-01   7.66703e-01   5.44655e-01
Si    4.07685e+00   6.78621e+00   9.50470e+00 -6.88592e-01   3.66758e-01   4.37719e-01
Si    5.51094e+00   5.40752e+00   5.49706e+00 -4.76886e-01  -2.06939e-01   1.15160e-01
Si    8.24967e+00   8.10273e+00   5.45887e+00 -3.11526e-01   4.11353e-01  -3.41648e-01
Si    5.47798e+00   8.12989e+00   8.11279e+00 -8.72297e-01   1.38897e-01   6.61975e-01
Si    8.11677e+00   5.38164e+00   8.18617e+00  3.03691e-01   1.04479e+00  -1.26772e-01
Si    6.85234e+00   6.85221e+00   6.80384e+00  1.09777e-01  -1.31392e+00   1.33173e-01
Si    9.60469e+00   9.56628e+00   6.66380e+00 -4.70857e-01   4.09280e-01   1.96397e-01
Si    6.78412e+00   9.49808e+00   9.45530e+00  3.94930e-01  -5.96087e-01   5.34409e-01
Si    9.55635e+00   6.80157e+00   9.49171e+00 -3.45928e-01  -4.34375e-01  -1.48785e-01
