64
Lattice="10.862 0 0 0 10.862 0 0 0 10.862 " PBC="1 1 1" Properties=species:S:1:pos:R:3:force:R:3 Energy="-273.07528"
Si    1.09363e+01  -8.24897e-02   1.09060e+01 -4.44746e-01   1.11271e+00  -8.81404e-01
Si    2.78543e+00   2.72602e+00  -1.03103e-01 -7.25789e-01  -2.50313e-01   8.74628e-01
Si    1.09099e+01   2.61672e+00   2.70036e+00 -2.96336e-01   7.84216e-01  -3.71347e-01
Si    2.68783e+00   6.41578e-03   2.75519e+00 -2.20322e-01  -1.13861e+00  -4.45610e-01
Si    1.42181e+00   1.33628e+00   1.27951e+00  2.48095e-01   2.28675e-01   4.03281e-01
Si    4.09976e+00   4.06662e+00   1.28376e+00 -9.40515e-02   3.85513e-01   6.37902e-01
Si    1.42793e+00   3.97431e+00   4.00690e+00  1.62478e-01   7.60558e-01   5.95213e-01
Si    4.04857e+00   1.29223e+00   4.05212e+00  9.45438e-01   3.23647e-01   1.09596e+00
Si    5.42647e+00   1.08280e+01   1.09685e+01 -7.47225e-01   5.90988e-01  -3.41400e-01
Si    8.18341e+00   2.73263e+00   1.08752e+01  1.93831e-01   1.31844e-01   2.07652e-01
Si    5.38944e+00   2.72427e+00   2.76048e+00  2.97197e-01   5.22228e-01  -1.75235e-01
Si    8.14039e+00   1.09906e+01   2.71250e+00 -6.38413e-01  -7.89045e-01   4.62874e-01
Si    6.76194e+00   1.43986e+00   1.36552e+00  2.96080e-02  -2.04101e-01   2.70944e-02
Si    9.49253e+00   4.10356e+00   1.44009e+00  6.70031e-01  -9.79484e-01  -6.35274e-01
Si    6.79865e+00   4.12899e+00   4.11162e+00 -8.14386e-01  -4.09484e-01  -1.33698e-01
Si    9.52150e+00   1.37815e+00   4.10921e+00  2.86533e-01  -4.46708e-01   3.00347e-01
Si    1.08275e+01   5.37925e+00   1.08267e+01  4.53310e-02   8.02175e-01   3.70286e-01
Si    2.72036e+00   8.11947e+00   2.19823e-02  2.95713e-01   5.86797e-01   4.61424e-01
Si   -2.68471e-02   8.18322e+00   2.66112e+00 -6.75433e-01   1.81465e-01   1.07492e-01
Si    2.71128e+00   5.49111e+00   2.64077e+00  5.35303e-01  -1.74043e+00   4.03140e-01
Si    1.35415e+00   6.75727e+00   1.35025e+00 -1.05845e+00   5.70463e-01  -7.95785e-01
Si    4.14057e+00   9.38793e+00   1.51794e+00 -1.29633e+00   1.26721e+00  -1.46851e+00
Si    1.22373e+00   9.53980e+00   4.11511e+00  1.20468e+00  -5.27912e-01  -6.68595e-01
Si    4.05518e+00   6.81173e+00   3.99621e+00  9.22440e-02  -1.13509e-01   8.81376e-01
Si    5.46767e+00   5.43452e+00  -4.51459e-02  2.10440e-01   1.76688e-01  -2.47824e-01
Si    8.16346e+00   8.19940e+00  -3.91907e-02 -5.09173e-01   3.13209e-01   2.77028e-01
Si    5.53735e+00   8.11451e+00   2.73682e+00 -4.34967e-01  -1.45650e+00  -4.54400e-01
Si    8.13605e+00   5.43844e+00   2.73130e+00  3.09986e-01   5.57658e-01   5.27161e-01
Si    6.87261e+00   6.77410e+00   1.32446e+00 -6.50775e-01   2.47096e-01  -2.14464e-01
Si    9.41482e+00   9.62844e+00   1.34511e+00  8.91153e-01  -1.26505e+00   2.46875e-01
Si    6.79765e+00   9.43983e+00   3.99966e+00  8.89611e-01   1.95661e+00   1.21122e+00
Si    9.46006e+00   6.87527e+00   4.09104e+00  9.43895e-01  -1.22706e+00  -1.52587e-01
Si   -3.26066e-02  -4.95036e-02   5.53307e+00 -1.00243e+00   6.17001e-01  -2.04323e-01
Si    2.77209e+00   2.64405e+00   5.48281e+00 -1.12200e+00  -1.53879e-01  -7.89342e-01
Si    1.09108e+01   2.67797e+00   8.18844e+00 -7.62490e-02   5.16914e-01  -2.15556e-01
Si    2.74739e+00  -1.18466e-02   8.02641e+00  2.07185e-01  -7.12089e-01   8.43226e-01
Si    1.33497e+00   1.30862e+00   6.83431e+00  2.71847e-01   5.59519e-01  -7.71301e-01
Si    4.01678e+00   4.07300e+00   6.77258e+00  8.05789e-02   6.93797e-01   9.42700e-01
Si    1.38718e+00   4.07579e+00   9.49432e+00 -6.26996e-01  -4.21136e-01   3.77761e-01
Si    4.03914e+00   1.30666e+00   9.46723e+00  1.27373e+00  -1.97665e-01   1.15763e-03
Si    5.46608e+00  -5.78407e-02   5.46104e+00 -1.74045e-01  -3.63242e-02  -1.55245e+00
Si    8.15437e+00   2.74148e+00   5.41762e+00  2.69939e-01   1.16581e-01   4.84493e-01
Si    5.39288e+00   2.76357e+00   8.14112e+00  7.89517e-01  -9.23464e-01  -2.34520e-01
Si    8.14513e+00   8.68086e-02   8.20742e+00  2.78509e-01  -6.00272e-01  -2.58479e-01
Si    6.81508e+00   1.33301e+00   6.74601e+00 -5.22849e-01   9.99911e-01   8.17753e-01
Si    9.56966e+00   4.05417e+00   6.81757e+00 -4.57460e-01   3.14597e-01  -2.76334e-01
Si    6.88674e+00   4.06893e+00   9.46364e+00 -7.42031e-01   5.56457e-01  -1.56349e-01
Si    9.58676e+00   1.37342e+00   9.55464e+00 -2.38752e-01  -5.31411e-01   4.44726e-01
Si    1.09267e+01   5.39257e+00   5.40577e+00 -6.63686e-01   1.12903e-01  -4.44711e-01
Si    2.60690e+00   8.09150e+00   5.39008e+00  1.82211e-01   3.88751e-02  -2.37581e-01
Si    1.08702e+01   8.15759e+00   8.17173e+00  3.09171e-01   2.24543e-01   1.71826e-01
Si    2.65602e+00   5.45236e+00   8.21586e+00  9.78655e-01  -3.41789e-01  -1.08048e+00
Si    1.32001e+00   6.74375e+00   6.85613e+00  2.34374e-02   4.05696e-01  -7.39259e-01
Si    4.04469e+00   9.42802e+00   6.65511e+00 -4.52905e-01   3.20456e-01   7.98195e-01
Si    1.43967e+00   9.53365e+00   9.48711e+00 -2.61729e-01  -6.64414e-01  -1.45378e-01
Si    4.02876e+00   6.82067e+00   9.49060e+00  1.61847e-01  -9.17268e-01   7.89252e-01
Si    5.36486e+00   5.45656e+00   5.46120e+00  1.00029e-01  -6.45278e-02  -7.81890e-01
Si    8.10693e+00   8.16355e+00   5.45343e+00 -2.17070e-01  -4.12806e-02   4.25969e-02
Si    5.28514e+00   8.15354e+00   8.15109e+00  1.97841e+00   6.74721e-01  -2.71273e-01
Si    8.16482e+00   5.53606e+00   8.08680e+00  2.25641e-01  -1.16482e+00   2.60131e-01
Si    6.73166e+00   6.80138e+00   6.77781e+00 -4.21226e-01   6.34763e-01   3.26974e-01
Si    9.43974e+00   9.44925e+00   6.87274e+00  8.75464e-02   8.99602e-01  -1.03569e-01
Si    6.75576e+00   9.59718e+00   9.52867e+00 -3.55201e-01  -1.18567e+00  -5.65457e-01
Si    9.48738e+00   6.85472e+00   9.48024e+00  4.71199e-01  -6.81859e-01   4.22641e-01
