64
Lattice="10.862 0 0 0 10.862 0 0 0 10.862 " PBC="1 1 1" Properties=species:S:1:pos:R:3:force:R:3 Energy="-273.36854"
Si    1.09175e+01   5.80554e-02   1.08102e+01 -4.65685e-01  -5.22615e-02   4.88509e-01
Si    2.70728e+00   2.68193e+00  -5.23720e-02  7.45161e-02   7.03012e-01  -3.16693e-01
Si    1.09326e+01   2.71265e+00   2.66090e+00 -6.17035e-01   7.70536e-01   7.33398e-01
Si    2.75046e+00  -3.81266e-02   2.80180e+00 -4.07230e-01   2.84154e-01  -1.41320e+00
Si    1.41967e+00   1.40854e+00   1.35954e+00  1.74396e-01  -1.59720e+00   4.71204e-02
Si    4.13691e+00   3.95062e+00   1.28123e+00 -4.37387e-01   1.46709e+00   1.70144e-03
Si    1.44389e+00   4.12303e+00   4.04783e+00 -4.78105e-01  -1.22649e+00   2.00824e-01
Si    4.02288e+00   1.39054e+00   4.07781e+00  7.48402e-01  -3.85882e-01   7.52065e-01
Si    5.40570e+00   1.08772e+01   1.09100e+01 -8.83763e-02  -1.62668e-01  -5.80110e-01
Si    8.06999e+00   2.63357e+00   1.09126e+01  9.94658e-01   5.73268e-01  -9.20850e-01
Si    5.38906e+00   2.68749e+00   2.75731e+00  2.14119e-01   9.70970e-02  -1.87542e-01
Si    8.13824e+00   1.08364e+01   2.73907e+00 -5.84515e-01  -6.62973e-01  -8.90811e-02
Si    6.75194e+00   1.35326e+00   1.42579e+00 -1.18331e-01  -6.52629e-01   1.43293e-01
Si    9.49445e+00   4.02319e+00   1.30339e+00  1.67655e-01  -2.21868e-01   2.80370e-01
Si    6.67032e+00   4.08774e+00   4.11025e+00  1.26073e+00   2.54818e-02   8.34060e-02
Si    9.47327e+00   1.38713e+00   3.99127e+00  4.72971e-01   4.96115e-01   8.48829e-01
Si    1.07883e+01   5.49251e+00   1.08838e+01  4.90318e-01   1.85060e-01  -3.85799e-02
Si    2.70434e+00   8.13512e+00   1.07317e-01  2.34345e-01   1.23337e+00  -1.29779e+00
Si   -6.61648e-02   8.21113e+00   2.66515e+00  7.33617e-01  -1.42615e+00   7.57255e-01
Si    2.69727e+00   5.38745e+00   2.61687e+00  1.35955e+00  -1.66228e-01   6.21651e-02
Si    1.38853e+00   6.81731e+00   1.36879e+00 -1.71020e+00  -3.25613e-01   2.83560e-01
Si    4.13521e+00   9.45027e+00   1.42282e+00 -2.22697e-01   1.36761e-01   3.86787e-01
Si    1.34306e+00   9.47856e+00   4.05954e+00 -9.44394e-02  -3.85643e-04   6.81071e-01
Si    4.02049e+00   6.68049e+00   4.10183e+00  7.58766e-01   2.81553e-01  -2.91261e-01
Si    5.50697e+00   5.39835e+00  -8.86845e-02 -9.77890e-01  -5.73432e-02   5.28518e-01
Si    8.12733e+00   8.16164e+00  -3.78556e-02 -1.24123e-01   1.16852e-01   7.41416e-01
Si    5.49939e+00   8.01582e+00   2.74722e+00 -8.31662e-01  -1.29443e-01  -6.26615e-02
Si    8.15708e+00   5.35223e+00   2.65868e+00 -4.78441e-01  -3.96461e-01   9.31768e-01
Si    6.84845e+00   6.70332e+00   1.32486e+00 -2.42591e-01   5.69329e-01  -2.78405e-01
Si    9.51208e+00   9.52802e+00   1.32232e+00 -4.56901e-01   7.35486e-01  -7.14909e-01
Si    6.77105e+00   9.37958e+00   4.13264e+00  9.38890e-01   6.83212e-01  -8.67719e-01
Si    9.49468e+00   6.69382e+00   4.03594e+00  6.47126e-01   6.76879e-01  -4.65561e-01
Si    8.60209e-04   7.01440e-02   5.39006e+00 -3.16736e-01  -5.23916e-01   9.42566e-02
Si    2.79696e+00   2.77726e+00   5.50133e+00 -1.14698e+00  -1.02175e-01  -6.87810e-01
Si    1.08964e+01   2.75020e+00   8.13956e+00 -2.79756e-01   1.70215e-01   3.47371e-01
Si    2.69673e+00   1.65817e-02   8.16165e+00  3.71599e-02   4.15023e-01  -1.18105e+00
Si    1.35655e+00   1.40238e+00   6.77653e+00  4.36088e-01  -1.19587e-01   3.68636e-02
Si    4.04362e+00   4.13727e+00   6.87305e+00  8.46486e-01  -8.89381e-01   6.50382e-01
Si    1.30701e+00   4.15438e+00   9.54921e+00  6.06591e-01  -4.34013e-01  -2.62548e-01
Si    4.05286e+00   1.35688e+00   9.43685e+00  7.83058e-01  -9.66299e-02   7.96986e-01
Si    5.47047e+00   2.19907e-03   5.35731e+00 -1.12059e+00  -3.76689e-01   1.07336e+00
Si    8.14473e+00   2.75368e+00   5.46665e+00  4.17193e-01   1.98289e-01  -7.72953e-01
Si    5.49514e+00   2.67524e+00   8.11306e+00 -5.58551e-01   3.76266e-01  -1.14722e-01
Si    8.08424e+00  -5.54549e-02   8.13623e+00  4.31701e-01   5.19023e-01   5.94275e-01
Si    6.84682e+00   1.31042e+00   6.74778e+00 -6.85930e-01   2.62868e-01  -8.96287e-03
Si    9.58248e+00   4.12996e+00   6.80337e+00 -4.56070e-01  -1.59175e-02  -5.99797e-01
Si    6.85616e+00   4.03714e+00   9.46229e+00 -1.28905e-01  -9.70109e-02  -9.92334e-02
Si    9.48654e+00   1.38104e+00   9.45230e+00 -2.42511e-01  -3.94690e-01   3.02661e-01
Si    1.09605e+01   5.45725e+00   5.39043e+00 -5.27310e-01   2.75459e-02   4.60213e-01
Si    2.73755e+00   8.10584e+00   5.44753e+00 -5.55411e-01   5.48654e-01  -6.40539e-01
Si    1.08534e+01   8.17285e+00   8.15921e+00  1.60944e-01   9.64157e-01  -2.85533e-01
Si    2.75134e+00   5.49413e+00   8.21954e+00 -1.70040e+00  -2.06256e-01  -5.40568e-01
Si    1.36328e+00   6.85958e+00   6.80622e+00  1.75449e-01  -9.34955e-01   3.39157e-01
Si    4.00332e+00   9.49987e+00   6.80681e+00  5.07413e-01   1.30850e+00  -1.16387e+00
Si    1.41065e+00   9.56007e+00   9.47030e+00 -5.62793e-01  -1.23591e+00   1.14583e+00
Si    3.99398e+00   6.81616e+00   9.55548e+00  1.39447e+00   2.09187e-01   4.82639e-01
Si    5.40034e+00   5.42467e+00   5.57844e+00 -5.10028e-02   3.77133e-01  -1.33810e+00
Si    8.20524e+00   8.05439e+00   5.41747e+00 -4.13706e-01   5.76957e-01   6.33218e-01
Si    5.27795e+00   8.23831e+00   8.17509e+00  1.18282e+00  -1.61014e+00   8.64519e-02
Si    8.15343e+00   5.47681e+00   8.11895e+00  3.80946e-01  -2.64410e-02   3.92612e-01
Si    6.75288e+00   6.83629e+00   6.82432e+00 -2.08428e-01   4.14641e-01   4.34230e-01
Si    9.46942e+00   9.55541e+00   6.79059e+00  7.67462e-01  -7.53751e-01  -6.71053e-01
Si    6.71787e+00   9.46804e+00   9.50612e+00 -3.64328e-02   8.30549e-01   2.93517e-01
Si    9.48794e+00   6.87914e+00   9.49886e+00 -7.07367e-02  -9.53215e-01  -2.24973e-01
