64
Lattice="10.862 0 0 0 10.862 0 0 0 10.862 " PBC="1 1 1" Properties=species:S:1:pos:R:3:force:R:3 Energy="-272.76884"
Si    1.07750e+01  -5.08393e-02   1.08805e+01  2.56278e-01   7.20264e-01  -9.96149e-01
Si    2.65410e+00   2.73643e+00  -8.13103e-02  1.22713e-02  -4.71279e-02   1.49888e+00
Si    1.08131e+01   2.70498e+00   2.72578e+00  1.01761e-01   3.19097e-01   4.75433e-01
Si    2.63876e+00   2.62554e-02   2.59724e+00  9.02209e-01  -7.99380e-02   5.47603e-01
Si    1.18938e+00   1.36244e+00   1.34772e+00  1.43713e+00   3.34369e-01  -1.04538e+00
Si    4.06701e+00   3.99532e+00   1.47877e+00 -8.43527e-01   2.99550e-03  -3.20098e-01
Si    1.39532e+00   4.07305e+00   4.06165e+00 -1.20982e+00   8.73089e-01  -1.23445e-01
Si    4.04188e+00   1.27835e+00   4.07104e+00 -1.68426e-01   2.50109e-02  -3.24759e-02
Si    5.46633e+00   1.07431e+01   1.08161e+01  1.53143e-01   9.48607e-01   4.77432e-01
Si    8.17715e+00   2.72643e+00   1.07992e+01 -1.63469e-01  -9.27216e-01   6.57671e-01
Si    5.46555e+00   2.53555e+00   2.75272e+00 -5.82483e-02   1.12739e+00  -1.22130e-01
Si    8.11466e+00   1.08113e+01   2.71034e+00  2.92585e-01  -3.88466e-01  -2.81402e-02
Si    6.80995e+00   1.29369e+00   1.32685e+00  2.37093e-01  -4.26487e-02  -7.30708e-01
Si    9.56544e+00   4.05192e+00   1.28840e+00 -6.64893e-01   6.75804e-01   5.56769e-01
Si    6.87485e+00   3.91619e+00   4.09088e+00 -3.71424e-01   6.44594e-01  -1.37464e+00
Si    9.49892e+00   1.27334e+00   4.06275e+00  1.05702e-01   6.25993e-01   2.82286e-01
Si    1.09403e+01   5.45980e+00   1.08576e+01 -1.82799e+00   7.55045e-01  -3.16680e-01
Si    2.65689e+00   8.17882e+00   2.85097e-02  5.82984e-01   3.29281e-01  -6.84073e-01
Si    6.25440e-02   8.12320e+00   2.72395e+00 -6.22794e-02   3.47847e-01   4.57860e-02
Si    2.70587e+00   5.55000e+00   2.76519e+00  6.02429e-01  -1.49746e+00  -2.09305e-01
Si    1.37931e+00   6.79061e+00   1.33415e+00 -8.72932e-02   3.39263e-01   5.81965e-01
Si    4.09821e+00   9.48295e+00   1.34684e+00 -7.41928e-01  -1.52398e-02   2.54175e-01
Si    1.40620e+00   9.56483e+00   4.04970e+00 -1.99151e-01  -7.97209e-01   2.39500e-01
Si    4.10390e+00   6.78955e+00   4.16171e+00 -6.27548e-03  -6.05579e-01   1.40420e-01
Si    5.36976e+00   5.35780e+00   1.02418e-01  6.37566e-01   1.28344e-01  -3.37202e-01
Si    8.18329e+00   8.12586e+00   2.70883e-02 -5.99556e-01  -4.92895e-01   5.66556e-01
Si    5.36439e+00   8.13512e+00   2.80395e+00  9.90289e-01  -2.94562e-01  -1.17772e+00
Si    8.15280e+00   5.42084e+00   2.71345e+00  7.04173e-01  -1.50610e+00   1.78047e-01
Si    6.80995e+00   6.69306e+00   1.40505e+00 -9.88270e-01   1.58709e+00  -2.05122e-01
Si    9.55290e+00   9.44387e+00   1.37499e+00 -9.02805e-01   4.34650e-02   5.49523e-01
Si    6.66601e+00   9.56106e+00   4.10474e+00  1.44374e+00  -6.75782e-01   8.22870e-03
Si    9.49374e+00   6.81103e+00   4.02179e+00  5.20754e-01  -2.80219e-01   1.15284e-01
Si    7.66977e-02   3.22384e-02   5.45185e+00 -2.12814e-01   1.15184e-01  -7.38124e-01
Si    2.74254e+00   2.74997e+00   5.35805e+00  2.26214e-01  -4.28384e-01   5.54971e-01
Si    1.09268e+01   2.75530e+00   8.14212e+00 -1.16250e+00   8.41076e-01  -5.44203e-01
Si    2.67227e+00   6.50673e-02   8.21169e+00  3.57692e-01   4.52729e-02  -9.16722e-01
Si    1.38286e+00   1.45382e+00   6.75146e+00  4.71318e-01  -4.98564e-01   4.54618e-01
Si    4.06548e+00   4.06880e+00   6.77126e+00 -4.20286e-01   9.10768e-01   4.98076e-01
Si    1.34132e+00   4.21971e+00   9.47339e+00  1.02738e+00  -1.04838e+00  -5.06718e-01
Si    4.11007e+00   1.33604e+00   9.55040e+00 -6.88541e-01  -4.52143e-02   4.78397e-02
Si    5.46080e+00   7.03241e-02   5.51392e+00 -9.12707e-01  -2.06617e-01  -6.03031e-01
Si    8.21000e+00   2.70132e+00   5.45027e+00 -2.21228e-01  -1.17050e+00   1.18542e-01
Si    5.34605e+00   2.74636e+00   8.20206e+00  5.74500e-01  -4.77577e-01  -5.34091e-01
Si    8.17846e+00  -2.27375e-03   8.10214e+00 -7.60753e-01   7.81326e-03  -2.15305e-01
Si    6.74898e+00   1.41926e+00   6.82642e+00  9.05816e-01   2.86372e-01   4.77949e-01
Si    9.45981e+00   4.13124e+00   6.72964e+00  1.44469e+00  -8.38593e-01   9.19264e-01
Si    6.72846e+00   4.00805e+00   9.55481e+00  3.83307e-01   1.40960e+00  -5.85943e-01
Si    9.50461e+00   1.35585e+00   9.41846e+00  4.78174e-01   9.89975e-02   7.01970e-01
Si    1.08328e+01   5.49349e+00   5.44671e+00  6.49493e-01  -4.87765e-01  -7.47229e-01
Si    2.74276e+00   8.17358e+00   5.45376e+00 -1.31018e-01   5.58233e-01   4.89222e-01
Si    1.07244e+01   8.21619e+00   8.14679e+00  1.34895e+00  -1.74187e-01  -7.87573e-01
Si    2.72900e+00   5.61144e+00   8.17655e+00  7.52736e-01  -1.60946e+00  -2.40482e-01
Si    1.33303e+00   6.82361e+00   6.82855e+00 -5.56989e-01   1.20283e+00  -3.48418e-01
Si    4.10426e+00   9.60262e+00   6.83587e+00 -3.72061e-01  -1.12276e+00   5.72863e-01
Si    1.29498e+00   9.53203e+00   9.46859e+00 -3.73362e-02  -2.79980e-01   6.97451e-01
Si    4.12462e+00   6.84250e+00   9.60999e+00 -5.72995e-01  -2.95438e-01  -2.30015e-02
Si    5.52982e+00   5.27563e+00   5.37333e+00 -1.03400e+00   8.42689e-01   3.21034e-01
Si    8.18953e+00   8.16043e+00   5.35533e+00 -1.34495e+00   2.56887e-01   2.25783e-01
Si    5.46432e+00   8.08349e+00   8.17572e+00  3.13313e-01   7.11094e-01  -8.11159e-01
Si    8.15098e+00   5.39868e+00   8.11408e+00 -1.06944e+00   1.63230e-01   8.51832e-01
Si    6.80203e+00   6.71216e+00   6.69448e+00  3.08743e-01   7.12016e-01   5.94560e-01
Si    9.51075e+00   9.56077e+00   6.67773e+00 -2.32365e-01  -2.82769e-01   6.66155e-01
Si    6.87437e+00   9.45085e+00   9.50994e+00 -1.97068e-01  -6.75135e-04  -7.08337e-01
Si    9.45260e+00   6.84256e+00   9.46546e+00  5.99974e-01  -1.37231e+00   6.45927e-01
