64
Lattice="10.862 0 0 0 10.862 0 0 0 10.862 " PBC="1 1 1" Properties=species:S:1:pos:R:3:force:R:3 Energy="-272.66221"
Si    1.09296e+01   4.37129e-02   1.08098e+01  1.72986e-01  -3.76710e-01   6.24941e-01
Si    2.72891e+00   2.69114e+00  -2.07563e-02  3.35085e-01  -7.72665e-01   3.93554e-01
Si    1.08392e+01   2.65525e+00   2.70549e+00  1.18327e+00   2.75494e-01   7.09727e-01
Si    2.70844e+00  -5.35777e-02   2.79092e+00  7.89272e-01   4.89067e-01  -2.20821e-01
Si    1.41066e+00   1.30113e+00   1.42931e+00 -1.53867e-01   5.31678e-01  -9.00021e-01
Si    4.11212e+00   4.10629e+00   1.24024e+00 -3.01594e-01  -1.06025e-02   3.31574e-01
Si    1.37812e+00   4.03571e+00   4.08896e+00 -7.14468e-01  -5.26716e-02  -9.33711e-01
Si    4.08274e+00   1.41866e+00   4.09331e+00 -1.17058e-01  -8.80251e-01  -7.21213e-01
Si    5.49760e+00   1.09607e+01   1.09103e+01 -7.35795e-01  -3.35712e-01  -3.83582e-03
Si    8.18881e+00   2.81677e+00   1.09037e+01 -2.87287e-01  -6.91093e-01  -8.02539e-01
Si    5.39292e+00   2.78727e+00   2.69279e+00  1.17199e-01   2.87634e-01   3.22069e-01
Si    8.18515e+00   1.09884e+01   2.70346e+00 -4.88635e-01  -5.91643e-01  -2.11363e-01
Si    6.80964e+00   1.50154e+00   1.37497e+00  2.07566e-01  -4.18906e-01   1.02574e-01
Si    9.52650e+00   4.02041e+00   1.42161e+00  5.88845e-02   1.18434e+00   8.10720e-03
Si    6.72006e+00   4.18093e+00   4.07288e+00  8.97910e-01  -1.27279e+00  -2.77086e-01
Si    9.52950e+00   1.37395e+00   4.09419e+00 -7.34886e-01   4.07076e-01   7.88907e-01
Si    1.08632e+01   5.38557e+00   1.09206e+01 -6.48801e-01   1.35117e-01  -7.29512e-01
Si    2.80980e+00   8.04302e+00  -5.33884e-03 -6.95986e-01   1.18929e+00   8.78195e-01
Si   -1.49679e-01   8.22054e+00   2.75023e+00  4.30184e-01  -1.07464e+00  -1.45542e-01
Si    2.62236e+00   5.37958e+00   2.58355e+00  9.43796e-01   3.29216e-01   9.40492e-01
Si    1.27248e+00   6.82240e+00   1.36806e+00  9.57303e-02   4.62107e-01  -7.98678e-03
Si    4.15482e+00   9.53717e+00   1.39698e+00 -6.23558e-01  -4.16297e-01  -4.50811e-01
Si    1.28640e+00   9.50466e+00   4.07270e+00  2.17300e-01  -7.20363e-01   4.07133e-01
Si    4.01914e+00   6.79191e+00   3.97148e+00  3.30959e-01  -1.46350e+00  -5.74306e-02
Si    5.57459e+00   5.43789e+00  -4.63635e-02 -1.57067e+00   6.24326e-01   5.63029e-01
Si    8.15907e+00   8.22169e+00  -1.68286e-02 -8.82362e-01  -4.84050e-01   5.44902e-01
Si    5.46401e+00   8.15024e+00   2.75824e+00  2.06756e-01   6.31103e-01  -9.55972e-03
Si    8.18369e+00   5.44704e+00   2.73739e+00 -6.52628e-01  -4.00105e-01  -1.19148e-01
Si    6.78800e+00   6.79552e+00   1.41188e+00  1.06244e+00   5.56372e-01  -7.12011e-01
Si    9.50942e+00   9.62409e+00   1.28979e+00 -2.37939e-01  -1.60077e-01   4.78391e-01
Si    6.84453e+00   9.58929e+00   4.08878e+00  5.62158e-01  -1.10202e+00  -1.28237e+00
Si    9.42246e+00   6.71905e+00   4.18916e+00  1.58484e+00   5.36961e-01  -1.29095e+00
Si   -8.52110e-02  -7.25466e-02   5.45142e+00  3.87673e-01   4.83283e-01   4.19099e-01
Si    2.68127e+00   2.67524e+00   5.42287e+00 -4.39078e-02  -3.31760e-01   1.12931e+00
Si    1.09252e+01   2.67011e+00   8.22129e+00 -7.56335e-02  -8.00431e-01  -7.97713e-01
Si    2.73492e+00  -8.89588e-02   8.15984e+00  3.77383e-01  -4.23210e-01  -3.22177e-01
Si    1.33592e+00   1.20730e+00   6.84030e+00  1.35465e-01   1.12821e+00  -6.16810e-01
Si    4.07923e+00   4.06094e+00   6.74510e+00 -6.89916e-01  -2.46142e-01   9.46416e-01
Si    1.33638e+00   3.98443e+00   9.54881e+00  7.66555e-01   1.65677e+00  -1.60934e-01
Si    4.09533e+00   1.31782e+00   9.46244e+00 -3.95744e-03   4.83193e-01   4.03742e-01
Si    5.45523e+00  -3.18443e-02   5.33646e+00 -4.87419e-01   1.16448e+00   1.47245e+00
Si    8.10138e+00   2.77736e+00   5.46795e+00  1.07001e+00   2.28619e-01  -7.44956e-01
Si    5.46317e+00   2.75280e+00   8.16750e+00 -2.24916e-01  -3.14885e-01  -5.33152e-01
Si    8.08479e+00   3.37582e-02   8.20070e+00  1.10532e-01   6.04743e-01   3.75589e-01
Si    6.79504e+00   1.38020e+00   6.74526e+00 -6.99982e-01  -4.36968e-01   5.46272e-01
Si    9.65023e+00   4.01449e+00   6.84928e+00 -1.74309e+00   4.15453e-01  -2.37422e-01
Si    6.82887e+00   4.12835e+00   9.50052e+00  7.99115e-01  -6.74115e-01  -7.44515e-01
Si    9.53778e+00   1.40473e+00   9.55336e+00 -9.17449e-01  -2.41609e-01  -2.10213e-01
Si    1.08795e+01   5.37734e+00   5.44528e+00 -7.30180e-02  -2.17540e-01  -4.95467e-01
Si    2.70954e+00   8.05479e+00   5.33210e+00 -3.90582e-01   1.41103e+00   4.94106e-01
Si    1.08002e+01   8.03999e+00   8.12803e+00  7.57905e-01   8.01887e-01   2.69935e-01
Si    2.70039e+00   5.44678e+00   8.14743e+00 -4.30353e-01  -1.18650e+00  -4.02297e-01
Si    1.35409e+00   6.74771e+00   6.68152e+00  2.98720e-02   2.35813e-01   1.36006e+00
Si    4.10528e+00   9.44767e+00   6.70642e+00 -9.86768e-01   4.39837e-01  -2.90657e-01
Si    1.37800e+00   9.42628e+00   9.52899e+00 -9.20912e-02  -5.64435e-01  -4.47926e-01
Si    4.09372e+00   6.71692e+00   9.48017e+00  7.68130e-01   3.32302e-01  -5.61464e-02
Si    5.37692e+00   5.41127e+00   5.42224e+00 -3.46143e-01   1.49970e+00  -5.25579e-01
Si    8.17477e+00   8.14734e+00   5.40067e+00 -5.40913e-01   1.37309e+00   9.90889e-01
Si    5.37127e+00   8.19221e+00   8.13823e+00  9.00001e-01  -1.15478e+00  -2.03437e-01
Si    8.14551e+00   5.46038e+00   8.07380e+00  1.60919e-01  -3.46412e-01  -1.02039e-01
Si    6.77816e+00   6.83758e+00   6.67489e+00 -6.27565e-01  -2.56816e-01   1.32633e+00
Si    9.43176e+00   9.54397e+00   6.90997e+00  2.31688e-01  -1.18098e+00  -1.00395e+00
Si    6.69910e+00   9.53295e+00   9.53286e+00  7.34329e-01   3.98487e-02  -1.62910e-01
Si    9.42706e+00   6.76178e+00   9.53339e+00  7.93318e-01  -3.37364e-01   1.06420e-01
