64
Lattice="10.862 0 0 0 10.862 0 0 0 10.862 " PBC="1 1 1" Properties=species:S:1:pos:R:3:force:R:3 Energy="-272.24481"
Si    1.07953e+01   3.98299e-02   1.07932e+01  2.00360e-01  -7.94583e-01   3.14852e-01
Si    2.65145e+00   2.80082e+00   5.88601e-02 -4.24838e-01  -1.77304e+00  -9.84578e-01
Si    1.08693e+01   2.61073e+00   2.73202e+00  4.48264e-01   3.30766e-01  -4.13838e-02
Si    2.66561e+00   5.12804e-02   2.71784e+00 -3.86099e-02  -1.51836e+00  -3.42445e-01
Si    1.27929e+00   1.25712e+00   1.34423e+00  7.74870e-01   1.49930e+00  -4.05771e-01
Si    4.07503e+00   3.99370e+00   1.33609e+00  3.28711e-01   6.50098e-01   1.73845e+00
Si    1.33228e+00   3.99618e+00   4.09688e+00 -3.49944e-01   5.02767e-01  -3.26719e-01
Si    4.06381e+00   1.28334e+00   4.01195e+00  9.37151e-01   1.27781e+00   1.18581e+00
Si    5.43453e+00   1.08889e+01   1.08715e+01 -5.28660e-01   8.32397e-03  -6.30954e-01
Si    8.14659e+00   2.70486e+00   1.08593e+01  6.95870e-01   6.29695e-01  -7.92133e-01
Si    5.53954e+00   2.63660e+00   2.68884e+00 -8.28068e-01  -6.46956e-01  -9.99043e-01
Si    8.21578e+00   1.09445e+01   2.69296e+00 -1.09703e+00  -1.29731e+00  -8.50246e-02
Si    6.92527e+00   1.29281e+00   1.22071e+00 -1.39506e+00   4.37203e-01   1.73853e+00
Si    9.63500e+00   3.91832e+00   1.30321e+00 -4.09613e-01   1.46124e+00   2.58968e-02
Si    6.84768e+00   3.97012e+00   4.02636e+00  2.02181e-01   5.43712e-01   5.77526e-01
Si    9.44927e+00   1.38704e+00   4.03902e+00  1.45620e+00  -6.67293e-01   1.40965e+00
Si    1.09104e+01   5.46193e+00   1.08286e+01 -1.03186e+00   6.96748e-02   3.33340e-01
Si    2.73372e+00   8.04028e+00   1.99597e-02 -3.51492e-02   1.30115e+00   1.95968e-01
Si   -5.67506e-02   8.24155e+00   2.76433e+00  1.60315e+00  -7.00537e-01  -3.00456e-03
Si    2.67577e+00   5.34499e+00   2.75230e+00  5.15958e-01   2.40322e-01  -3.61546e-01
Si    1.35430e+00   6.79656e+00   1.42718e+00 -4.41636e-01  -9.45589e-02   1.35654e-01
Si    4.06113e+00   9.52819e+00   1.35440e+00 -3.95632e-01  -4.13075e-01   2.81790e-01
Si    1.29653e+00   9.60530e+00   4.14234e+00  8.90214e-01  -1.15565e+00  -4.07320e-01
Si    4.01523e+00   6.75763e+00   4.11215e+00  2.21696e-01  -7.56121e-01  -3.98211e-01
Si    5.40810e+00   5.41495e+00   1.00323e-01  3.46361e-01   2.97793e-01  -5.41721e-01
Si    8.07703e+00   8.08018e+00   4.73800e-02  8.26779e-01   6.60842e-01   5.44847e-01
Si    5.34407e+00   8.13622e+00   2.79772e+00  7.69005e-01   2.69136e-01  -6.56407e-01
Si    8.31939e+00   5.28679e+00   2.74384e+00 -5.28763e-01   6.02113e-01  -3.03065e-01
Si    6.80807e+00   6.71201e+00   1.52226e+00 -1.50713e-01   4.65906e-02  -3.47128e-01
Si    9.53840e+00   9.54468e+00   1.41815e+00 -1.15647e+00  -2.55033e-01  -1.70422e+00
Si    6.77356e+00   9.57545e+00   4.03344e+00  9.84806e-01  -9.29256e-01  -6.44643e-01
Si    9.56423e+00   6.81827e+00   4.07813e+00 -2.22073e-01  -7.25969e-01  -1.06293e+00
Si   -3.06240e-02   5.80580e-03   5.51214e+00 -1.17135e+00   7.68811e-01  -6.87249e-01
Si    2.72297e+00   2.74141e+00   5.41951e+00  5.47701e-01  -1.10818e+00   3.39533e-01
Si    1.09066e+01   2.82080e+00   8.05468e+00 -8.21650e-01  -5.35539e-01   3.44335e-01
Si    2.79280e+00  -2.65325e-02   8.18797e+00 -4.50551e-01  -2.26536e-01  -4.90324e-01
Si    1.37213e+00   1.31873e+00   6.78894e+00  6.41985e-01   6.23280e-01   4.45694e-01
Si    4.06307e+00   4.12279e+00   6.81352e+00  2.42700e-02   2.48134e-01  -2.22847e-01
Si    1.34804e+00   4.12172e+00   9.48503e+00  7.40551e-01   4.83439e-01  -4.08693e-01
Si    4.07312e+00   1.46427e+00   9.49863e+00 -4.62192e-01  -8.08507e-01   1.07407e+00
Si    5.50904e+00  -2.99214e-02   5.42545e+00 -1.06152e+00   8.51415e-01   4.68589e-01
Si    8.17810e+00   2.66965e+00   5.44514e+00 -5.23688e-01   6.68477e-01   5.02335e-01
Si    5.42187e+00   2.75402e+00   8.18214e+00  2.04647e-01   2.07218e-01  -6.13265e-01
Si    8.15433e+00   7.45135e-03   8.24920e+00 -6.72437e-01   4.79360e-01  -4.59184e-01
Si    6.81224e+00   1.35596e+00   6.86711e+00 -1.98024e-01  -2.67252e-02  -3.53835e-01
Si    9.45341e+00   4.19477e+00   6.74610e+00  4.66020e-01  -7.61748e-01  -1.18725e-04
Si    6.74438e+00   4.05853e+00   9.58077e+00  2.16898e-01   6.26234e-01  -3.48196e-01
Si    9.49322e+00   1.45309e+00   9.46334e+00  6.85810e-01   7.54627e-02  -3.97863e-01
Si    1.08823e+01   5.48691e+00   5.37718e+00  1.72284e-01  -4.73278e-01   7.80066e-01
Si    2.70191e+00   8.10372e+00   5.42863e+00 -5.74841e-01   1.19611e+00  -2.01457e-01
Si    1.07721e+01   8.25312e+00   8.10452e+00  5.98631e-02  -6.00271e-01   5.33481e-01
Si    2.69260e+00   5.58762e+00   8.14351e+00 -7.53440e-02  -1.46612e+00  -1.44993e-01
Si    1.29484e+00   6.87595e+00   6.78433e+00 -1.05268e-01  -1.80840e-01   3.99868e-02
Si    4.12669e+00   9.42872e+00   6.72829e+00 -4.13359e-01   8.30295e-01   4.73533e-01
Si    1.35636e+00   9.47140e+00   9.55941e+00  9.59382e-02   2.25132e-01  -5.99176e-01
Si    4.11723e+00   6.78633e+00   9.49974e+00  3.99942e-01   2.23320e-02   2.98192e-01
Si    5.47881e+00   5.38457e+00   5.35938e+00 -2.50558e-01  -1.10690e-01   2.54718e-01
Si    8.18561e+00   8.12401e+00   5.29617e+00 -9.06257e-01   1.17885e+00   9.75270e-01
Si    5.46587e+00   8.11244e+00   8.07932e+00  7.78671e-01  -2.00092e-02   4.62286e-01
Si    8.04187e+00   5.45312e+00   8.13831e+00  4.30092e-01  -6.27207e-01   1.82652e-01
Si    6.86935e+00   6.76669e+00   6.65993e+00 -1.15041e+00   4.13046e-01   3.45406e-01
Si    9.34906e+00   9.56767e+00   6.78644e+00  9.81151e-01  -6.22917e-01  -4.39045e-01
Si    6.78397e+00   9.52130e+00   9.55053e+00 -4.60664e-01  -8.59228e-01  -3.39795e-01
Si    9.42686e+00   6.77980e+00   9.43964e+00  6.84834e-01   4.29406e-01   7.41844e-01
