64
Lattice="10.862 0 0 0 10.862 0 0 0 10.862 " PBC="1 1 1" Properties=species:S:1:pos:R:3:force:R:3 Energy="-273.45636"
Si    1.08046e+01   7.95782e-02   1.10042e+01  3.69715e-01  -8.17572e-02  -1.73725e+00
Si    2.70709e+00   2.64810e+00   2.21116e-02  7.79486e-01   8.56425e-01  -6.54874e-02
Si    1.08721e+01   2.72829e+00   2.70005e+00 -4.47516e-01   4.28209e-01   8.97916e-02
Si    2.67036e+00  -3.61840e-02   2.70907e+00  6.83417e-01   1.11452e-01   2.51918e-01
Si    1.36102e+00   1.41249e+00   1.39135e+00  2.06235e-03  -8.54596e-01   2.73775e-01
Si    4.10254e+00   4.00328e+00   1.39101e+00 -3.79067e-01   3.46099e-01  -6.12743e-01
Si    1.35249e+00   4.13238e+00   4.02194e+00  8.07436e-01  -1.26906e-01  -2.05431e-01
Si    4.08464e+00   1.37264e+00   4.04303e+00 -1.60997e-01  -1.10308e+00   4.32390e-01
Si    5.43328e+00   1.08588e+01   1.09059e+01  3.59391e-01  -1.43452e-01   7.06272e-02
Si    8.14947e+00   2.66867e+00   1.09242e+01 -9.31889e-01   3.30022e-01  -4.69979e-01
Si    5.45789e+00   2.63915e+00   2.68074e+00  6.78041e-01   5.67264e-01   6.83161e-01
Si    8.15749e+00   1.08548e+01   2.75437e+00 -2.94611e-01  -1.69958e+00   1.70585e-01
Si    6.87421e+00   1.26393e+00   1.41382e+00 -1.17568e+00   7.41995e-01  -7.50840e-01
Si    9.42727e+00   4.03636e+00   1.37302e+00  1.01188e+00   7.48673e-01   2.68316e-01
Si    6.78940e+00   4.06290e+00   4.10706e+00 -7.05307e-01   5.48064e-01  -8.07343e-01
Si    9.49932e+00   1.31864e+00   3.96918e+00  8.23610e-01   8.81113e-01   6.04610e-01
Si    1.08639e+01   5.37267e+00   1.08637e+01 -8.06032e-01   4.50474e-01  -9.03918e-02
Si    2.66039e+00   8.15157e+00   4.46940e-02  8.30417e-02   6.32236e-01  -1.38974e-01
Si    1.72607e-02   8.10484e+00   2.77751e+00 -9.11110e-01  -6.07075e-02  -1.31715e+00
Si    2.81469e+00   5.52281e+00   2.70256e+00 -6.64864e-01  -1.51291e+00   5.49621e-02
Si    1.33135e+00   6.73459e+00   1.37542e+00  1.47498e-01   5.51322e-01  -4.36230e-02
Si    4.13887e+00   9.45643e+00   1.41800e+00 -1.20780e+00   3.49999e-01  -6.24524e-01
Si    1.32029e+00   9.44229e+00   4.06598e+00  9.67516e-01   4.18912e-01   6.52320e-02
Si    4.12999e+00   6.76155e+00   4.12844e+00  2.31042e-01   3.96136e-01  -4.02412e-02
Si    5.43859e+00   5.27586e+00  -8.44056e-02 -1.13044e+00   1.78507e+00   2.83092e-01
Si    8.20599e+00   8.21854e+00  -7.04520e-02 -1.00891e+00  -5.71237e-01   3.78883e-01
Si    5.46283e+00   8.08100e+00   2.70007e+00  7.47810e-01  -2.83287e-01   5.02156e-01
Si    8.13064e+00   5.47913e+00   2.73124e+00 -5.95566e-01  -1.29635e+00  -5.61749e-01
Si    6.79612e+00   6.70051e+00   1.24806e+00  1.10249e-01   1.03832e+00   5.97528e-03
Si    9.50992e+00   9.52866e+00   1.38261e+00  3.17456e-02  -8.16044e-01   7.90119e-01
Si    6.80704e+00   9.44035e+00   4.15070e+00 -4.91849e-01   5.06595e-01  -1.13466e+00
Si    9.46609e+00   6.75608e+00   4.04675e+00  7.90339e-01   3.82290e-01   1.44102e+00
Si    1.98855e-02   1.71165e-02   5.31033e+00 -4.91834e-01   3.36985e-02   1.07324e+00
Si    2.70624e+00   2.74033e+00   5.36317e+00  5.39337e-02   3.29127e-01   6.40134e-01
Si    1.07538e+01   2.77104e+00   8.19719e+00  9.46573e-01  -4.68386e-01  -2.99478e-01
Si    2.64476e+00   1.32135e-01   8.11978e+00  5.74524e-01  -7.55917e-01   7.34588e-01
Si    1.28603e+00   1.43118e+00   6.75569e+00 -2.82807e-01   2.96925e-01  -2.61314e-01
Si    4.07068e+00   4.07008e+00   6.83511e+00 -2.66823e-01  -2.82246e-01  -4.18388e-02
Si    1.38236e+00   4.03103e+00   9.54642e+00 -2.86953e-01   2.97326e-01  -5.42790e-01
Si    4.15255e+00   1.38834e+00   9.53322e+00 -6.12443e-01  -2.86900e-01  -6.61146e-01
Si    5.44588e+00  -3.24039e-02   5.47933e+00 -5.42627e-01   1.63991e-01  -4.22892e-01
Si    8.19781e+00   2.71844e+00   5.29506e+00  4.60866e-01  -1.44299e-01   1.23169e+00
Si    5.54445e+00   2.68353e+00   8.10537e+00 -5.93527e-01  -8.95982e-02  -1.32030e-01
Si    8.17321e+00   8.58195e-02   8.08989e+00 -1.44725e-02  -1.48232e+00   6.49180e-01
Si    6.91961e+00   1.33503e+00   6.70837e+00 -1.22326e+00   9.43046e-01  -3.20698e-01
Si    9.52202e+00   4.10343e+00   6.74112e+00 -7.74219e-01  -2.92988e-01   1.20412e-02
Si    6.82880e+00   4.03363e+00   9.48513e+00  8.93332e-01  -3.73193e-01  -3.13522e-01
Si    9.42220e+00   1.37796e+00   9.54179e+00  1.13752e+00  -1.92313e-01   1.15830e-01
Si    1.09150e+01   5.40723e+00   5.44632e+00 -4.93201e-01   1.02083e+00  -3.73938e-01
Si    2.69782e+00   8.09649e+00   5.40282e+00  5.42394e-02   3.22472e-01   4.02409e-01
Si    1.08809e+01   8.18002e+00   8.11917e+00 -3.89651e-01   7.66154e-01  -2.92832e-01
Si    2.67108e+00   5.48255e+00   8.15893e+00  6.13444e-01  -1.18693e+00   4.85846e-01
Si    1.38486e+00   6.79084e+00   6.83289e+00 -7.07723e-01   2.19201e-01  -9.31165e-01
Si    3.96461e+00   9.49858e+00   6.80871e+00  3.84612e-01   5.99873e-01  -1.84918e-01
Si    1.29804e+00   9.59423e+00   9.53154e+00  2.01406e-01   5.35682e-02   3.33213e-01
Si    3.99676e+00   6.86387e+00   9.47952e+00  7.72310e-01  -1.26014e+00   1.03991e+00
Si    5.44852e+00   5.43538e+00   5.55157e+00  2.19402e-01  -2.80854e-01  -7.03618e-01
Si    8.11963e+00   8.11652e+00   5.46845e+00  3.45486e-01  -6.18995e-01  -1.94112e-02
Si    5.35918e+00   8.20218e+00   8.17951e+00  2.49031e-01   4.53798e-02  -2.74143e-01
Si    8.15141e+00   5.46417e+00   8.11362e+00  3.29324e-01  -6.58440e-01   5.93318e-01
Si    6.77038e+00   6.81444e+00   6.89914e+00 -3.51836e-01   4.55151e-01  -6.98567e-01
Si    9.46817e+00   9.54944e+00   6.69461e+00  9.95021e-01  -7.89849e-02   7.26300e-01
Si    6.75502e+00   9.57087e+00   9.46586e+00  6.56959e-01   6.44266e-02   5.65832e-03
Si    9.52028e+00   6.83287e+00   9.43893e+00  4.30763e-01  -6.79422e-01   6.64718e-01
