64
Lattice="10.862 0 0 0 10.862 0 0 0 10.862 " PBC="1 1 1" Properties=species:S:1:pos:R:3:force:R:3 Energy="-272.86035"
Si    1.08631e+01   4.49453e-02   1.08199e+01 -5.22791e-01   3.50942e-01  -5.08173e-01
Si    2.70396e+00   2.73424e+00   8.07725e-02 -4.20770e-02   4.33788e-01  -9.88878e-02
Si    1.08781e+01   2.77318e+00   2.66198e+00 -2.56248e-02  -1.19624e+00   1.24937e+00
Si    2.70845e+00  -7.52055e-03   2.67669e+00  4.06942e-01  -3.01689e-01   9.34720e-01
Si    1.38452e+00   1.34059e+00   1.39495e+00 -8.49890e-01   3.48675e-01  -6.91290e-01
Si    4.06695e+00   4.00750e+00   1.49972e+00  7.90200e-02  -2.98516e-01  -7.15994e-01
Si    1.30294e+00   4.09471e+00   4.14290e+00  7.24691e-01   1.78758e-01  -1.16497e+00
Si    4.12211e+00   1.36603e+00   4.02534e+00 -2.66840e-01  -1.18484e+00   2.98477e-01
Si    5.44029e+00   1.08467e+01   1.07998e+01 -8.18285e-01  -1.36427e-01   4.03797e-01
Si    8.17102e+00   2.71402e+00   1.08597e+01 -7.01392e-01   8.78422e-01  -3.27640e-01
Si    5.53268e+00   2.57595e+00   2.64735e+00 -1.33292e-01   7.06768e-01   3.01469e-01
Si    8.09823e+00   1.07220e+01   2.65881e+00  1.09315e+00   4.23366e-01   2.41831e-01
Si    6.88290e+00   1.25187e+00   1.27148e+00 -5.72189e-01   1.64420e-01   8.51339e-02
Si    9.58716e+00   4.05429e+00   1.30488e+00 -8.78361e-01   1.23360e+00  -1.88396e-02
Si    6.80371e+00   3.99837e+00   4.02468e+00  5.28618e-01  -1.58508e-01   1.53834e-01
Si    9.46848e+00   1.31184e+00   4.01430e+00  8.23427e-01  -1.59682e-01  -3.28440e-01
Si    1.09783e+01   5.44685e+00   1.08319e+01 -1.82936e+00  -1.92023e-02  -3.60970e-01
Si    2.66880e+00   8.11470e+00  -9.46607e-02  6.37466e-02  -3.29513e-01   1.05803e+00
Si    4.05749e-02   8.10950e+00   2.76080e+00 -4.77217e-01   5.30328e-01  -1.12502e+00
Si    2.74070e+00   5.44336e+00   2.72729e+00 -1.15026e+00  -2.67698e-01   7.92263e-01
Si    1.32054e+00   6.75963e+00   1.35673e+00  1.44035e+00   6.17822e-01   2.30074e-01
Si    3.99905e+00   9.47541e+00   1.31973e+00  7.48798e-01  -6.08049e-02  -4.35127e-01
Si    1.39293e+00   9.46145e+00   4.07760e+00  3.72374e-01   6.03369e-01   1.56587e-01
Si    4.03966e+00   6.77957e+00   4.12488e+00  3.21616e-01  -2.64142e-01   5.43917e-01
Si    5.30954e+00   5.37031e+00   9.96516e-02  6.95139e-01   8.91571e-01  -6.82265e-01
Si    8.11037e+00   8.06314e+00   1.60856e-02 -1.06188e-02   2.58293e-01  -7.76420e-02
Si    5.33792e+00   8.09198e+00   2.73367e+00  8.81336e-01   9.76929e-01   3.54253e-02
Si    8.16963e+00   5.44750e+00   2.73091e+00  2.87713e-01  -1.14697e+00  -6.17460e-01
Si    6.77992e+00   6.74817e+00   1.39636e+00 -8.59331e-01  -1.17765e-01  -9.66179e-03
Si    9.53916e+00   9.41754e+00   1.25067e+00  6.18074e-02   3.37428e-01   1.19748e+00
Si    6.71296e+00   9.55438e+00   4.14516e+00 -9.29395e-02  -1.49155e+00  -6.53270e-01
Si    9.51475e+00   6.80121e+00   4.03654e+00 -3.64192e-01   2.95426e-01   1.33645e+00
Si    1.10815e-01   3.82139e-02   5.41517e+00 -7.99105e-01   3.09044e-01   1.50621e-01
Si    2.73597e+00   2.69405e+00   5.34459e+00  3.61223e-01   5.72806e-01   1.23628e+00
Si    1.08840e+01   2.82543e+00   8.13491e+00  2.24556e-01   5.27978e-01  -6.43716e-01
Si    2.70633e+00   1.75365e-02   8.21204e+00  3.44559e-01  -1.76329e-01   2.93323e-01
Si    1.45098e+00   1.40626e+00   6.86764e+00 -8.54871e-01   1.16979e-01  -1.00831e+00
Si    4.13228e+00   4.07858e+00   6.76792e+00 -1.51434e+00   1.70268e-01  -1.14325e+00
Si    1.46816e+00   4.15613e+00   9.50241e+00 -5.13857e-02  -4.56180e-01  -6.39007e-01
Si    4.01447e+00   1.45451e+00   9.54707e+00  7.46320e-01  -8.14674e-01  -2.69365e-01
Si    5.36865e+00  -3.10463e-02   5.53306e+00  5.73921e-01   1.52558e+00  -4.87139e-01
Si    8.14965e+00   2.62471e+00   5.43307e+00 -4.17204e-01   6.03012e-01   2.08162e-02
Si    5.35491e+00   2.80715e+00   8.14292e+00  7.35476e-01  -1.15877e+00   9.37021e-01
Si    8.11750e+00  -1.20549e-02   8.21009e+00 -6.08601e-02   5.24846e-02  -3.31889e-01
Si    6.75503e+00   1.37137e+00   6.90605e+00 -2.70808e-01  -2.14528e-01  -8.57783e-01
Si    9.45483e+00   4.15354e+00   6.69759e+00  2.69341e-01  -9.06016e-01   1.15331e+00
Si    6.69342e+00   4.10519e+00   9.53402e+00  8.98813e-01  -1.27170e-01   4.24555e-01
Si    9.43818e+00   1.52037e+00   9.38527e+00  1.20656e+00  -1.73054e+00   1.14271e+00
Si    1.08650e+01   5.48592e+00   5.46489e+00 -6.63394e-02   4.15083e-01  -4.85256e-01
Si    2.75446e+00   8.20404e+00   5.52398e+00 -5.95114e-02  -4.36621e-01  -6.87784e-01
Si    1.07826e+01   8.27517e+00   8.11015e+00  4.30231e-01  -1.85214e+00   4.03895e-02
Si    2.76339e+00   5.52022e+00   8.02683e+00  2.33221e-01  -1.32895e+00   1.08074e+00
Si    1.39062e+00   6.82548e+00   6.80665e+00 -1.35298e+00   1.11819e+00  -1.91318e-01
Si    4.09821e+00   9.52379e+00   6.88788e+00 -6.65104e-01  -1.07992e-01   9.10830e-02
Si    1.32181e+00   9.45932e+00   9.48571e+00 -5.55746e-02   1.33697e+00   9.70956e-03
Si    4.06588e+00   6.78824e+00   9.44411e+00  3.70998e-01  -2.21743e-01   7.22654e-01
Si    5.48640e+00   5.35152e+00   5.40887e+00 -1.91027e-01   8.03022e-01  -2.65790e-01
Si    8.13059e+00   8.18048e+00   5.47596e+00  2.48597e-02  -4.23910e-01  -6.97904e-01
Si    5.45539e+00   8.12273e+00   8.12493e+00 -3.72449e-02  -3.33765e-01   3.12606e-01
Si    8.15849e+00   5.44493e+00   8.20042e+00 -5.96675e-01  -5.66526e-01  -3.63480e-01
Si    6.79967e+00   6.73093e+00   6.81155e+00  1.10052e-01   4.00180e-01  -4.19563e-01
Si    9.48738e+00   9.60046e+00   6.75065e+00 -2.91420e-02   3.06966e-01  -4.94057e-02
Si    6.77054e+00   9.40898e+00   9.53000e+00  3.04019e-01   5.94662e-01  -2.40117e-01
Si    9.47385e+00   6.81151e+00   9.50750e+00  1.25395e+00  -9.37417e-02  -3.79694e-02
