64
Lattice="10.862 0 0 0 10.862 0 0 0 10.862 " PBC="1 1 1" Properties=species:S:1:pos:R:3:force:R:3 Energy="-272.93387"
Si    1.08749e+01   3.72192e-02   1.08860e+01 -2.62725e-01  -9.87866e-01  -3.26242e-01
Si    2.79502e+00   2.68836e+00  -5.03128e-02 -6.50031e-01   4.57751e-01   3.28197e-01
Si    1.08133e+01   2.76146e+00   2.68374e+00  1.13503e-01   1.68515e-02   1.50466e-01
Si    2.75345e+00   8.72867e-02   2.64936e+00 -5.86741e-01   1.96076e-01   8.99283e-01
Si    1.34311e+00   1.44551e+00   1.32640e+00  3.16760e-01  -2.32461e-01   5.16912e-02
Si    4.12804e+00   4.07891e+00   1.31062e+00 -1.64846e-01   3.19704e-01  -2.15421e-01
Si    1.41657e+00   4.05181e+00   4.02847e+00 -6.52526e-01   4.28256e-01   3.71848e-01
Si    4.02820e+00   1.40130e+00   4.15119e+00 -8.24310e-03   1.42309e-01  -4.46502e-01
Si    5.41362e+00   1.08024e+01   1.08984e+01  1.83253e-01   4.21392e-02  -7.59535e-01
Si    8.09232e+00   2.64854e+00   1.08785e+01  7.62514e-02  -4.90499e-01  -5.25449e-02
Si    5.37315e+00   2.72669e+00   2.75090e+00 -1.47679e-01  -6.06486e-02   8.87262e-02
Si    8.14161e+00   1.07879e+01   2.72438e+00  3.34760e-02   1.09552e+00   8.76854e-02
Si    6.68624e+00   1.35276e+00   1.41723e+00  9.59074e-01  -6.33009e-01  -1.04745e-01
Si    9.34757e+00   4.08840e+00   1.36626e+00  7.56302e-01   5.76284e-02   4.60692e-02
Si    6.68948e+00   4.08649e+00   4.09002e+00  5.73270e-01   4.35220e-01   7.12169e-01
Si    9.54980e+00   1.34273e+00   4.08339e+00 -1.02800e+00   3.80816e-01  -6.54205e-01
Si    1.07577e+01   5.46426e+00   1.08904e+01  9.10603e-01  -6.59991e-01   4.71749e-02
Si    2.69010e+00   8.22764e+00  -8.82720e-04 -1.32561e-01  -4.06063e-01   4.89646e-01
Si    5.20044e-02   8.08238e+00   2.70568e+00 -1.51115e-01   9.87080e-01   5.60919e-01
Si    2.75432e+00   5.42687e+00   2.68810e+00  7.82946e-02   1.05020e-03  -2.12370e-01
Si    1.37360e+00   6.79528e+00   1.33435e+00  6.69285e-02  -4.31575e-01  -2.60635e-01
Si    4.02410e+00   9.49666e+00   1.40356e+00  1.32207e+00  -5.77649e-01  -3.53898e-02
Si    1.44973e+00   9.55644e+00   4.03913e+00 -9.40387e-01  -1.75701e-01  -1.29205e+00
Si    4.10094e+00   6.74623e+00   4.10218e+00 -1.78182e-01   6.21402e-01   9.75020e-02
Si    5.46451e+00   5.46557e+00  -1.09101e-01 -3.96110e-01  -6.79849e-01   8.45947e-01
Si    8.13433e+00   8.17722e+00  -4.41368e-02  4.27548e-01  -3.89471e-01   2.51252e-01
Si    5.52649e+00   8.03340e+00   2.67650e+00 -1.67676e+00   1.24120e+00   5.96374e-01
Si    8.03393e+00   5.47795e+00   2.72663e+00  3.89267e-01  -5.20942e-01   1.16332e-01
Si    6.77190e+00   6.77677e+00   1.26713e+00  7.31105e-01  -3.78527e-02  -2.52043e-01
Si    9.49829e+00   9.45297e+00   1.37971e+00  6.11441e-01   2.90188e-01  -3.95696e-01
Si    6.83665e+00   9.42008e+00   4.06867e+00 -4.64841e-01   2.73587e-02   4.40582e-01
Si    9.54900e+00   6.71993e+00   4.06194e+00 -2.38435e-01   4.59236e-02   1.30902e-02
Si    6.21894e-02  -3.79616e-03   5.33859e+00  5.10306e-02   7.28590e-02   1.45043e+00
Si    2.71829e+00   2.81701e+00   5.52952e+00  2.10306e-01  -3.20271e-01  -6.18820e-01
Si    1.08030e+01   2.69256e+00   8.18183e+00  1.26153e-01  -5.24015e-01   2.69528e-01
Si    2.66525e+00   9.28116e-02   8.07653e+00  4.88611e-01  -3.55731e-01   1.00488e+00
Si    1.34719e+00   1.43387e+00   6.79096e+00 -8.39303e-01  -2.31134e-01  -6.39743e-01
Si    4.06746e+00   4.17173e+00   6.87921e+00  2.93534e-01  -1.81523e+00  -4.51472e-02
Si    1.31142e+00   4.02765e+00   9.54360e+00  3.10725e-02   5.16156e-01   1.67485e-01
Si    4.09631e+00   1.31303e+00   9.46526e+00  1.77284e-01  -1.09661e-01   1.18428e-01
Si    5.40196e+00  -1.53213e-02   5.39843e+00  3.59119e-01  -6.58526e-01   7.82551e-01
Si    8.17700e+00   2.78704e+00   5.43039e+00  1.30461e-01  -5.71649e-01  -2.15912e-01
Si    5.43759e+00   2.65840e+00   8.09662e+00  5.56978e-01   6.75604e-01   4.95413e-01
Si    8.06916e+00  -1.09765e-01   8.00459e+00  1.89952e+00  -3.55656e-01   5.95448e-01
Si    6.85896e+00   1.32190e+00   6.75634e+00 -1.25162e+00   6.73253e-01  -1.02745e+00
Si    9.60925e+00   4.09854e+00   6.78980e+00 -1.51338e+00  -1.75171e-02   3.72226e-01
Si    6.84388e+00   4.03832e+00   9.51015e+00 -6.66973e-01  -7.16545e-02  -9.45146e-01
Si    9.40829e+00   1.20858e+00   9.46727e+00  1.37547e-01   9.86705e-01   4.97420e-03
Si    1.09166e+01   5.40634e+00   5.45095e+00  5.99225e-01   2.03257e-01  -7.28210e-01
Si    2.66845e+00   8.21322e+00   5.39771e+00  1.23886e+00  -1.23496e+00   8.54071e-01
Si    1.09893e+01   8.16338e+00   8.18600e+00 -6.44062e-01  -6.06075e-02  -5.67797e-01
Si    2.73195e+00   5.38941e+00   8.20300e+00 -9.12884e-01   1.24997e+00   9.46253e-01
Si    1.39259e+00   6.77291e+00   6.81778e+00  3.76449e-01   3.17640e-02  -2.95374e-01
Si    3.99177e+00   9.50927e+00   6.89414e+00  5.78990e-01   3.59117e-01  -1.88957e+00
Si    1.42766e+00   9.56703e+00   9.46631e+00 -7.47439e-01   6.61234e-01   6.76342e-01
Si    4.02570e+00   6.85950e+00   9.58123e+00 -1.23609e-01  -8.63082e-01  -8.08688e-01
Si    5.39896e+00   5.44368e+00   5.58715e+00  6.28040e-01   5.58469e-01  -1.38152e+00
Si    8.20276e+00   8.05451e+00   5.44778e+00 -3.89055e-01   2.36625e-01  -1.62711e-01
Si    5.33804e+00   8.16272e+00   8.20924e+00  2.58674e-01   2.73023e-01   2.66082e-02
Si    8.17658e+00   5.45530e+00   8.16304e+00  2.36563e-01   2.11550e-01  -1.98642e-01
Si    6.72218e+00   6.87845e+00   6.88464e+00  8.95303e-01  -1.01066e+00  -3.40940e-01
Si    9.60621e+00   9.40086e+00   6.72978e+00 -1.49235e-01   9.51463e-01   1.33336e-01
Si    6.81401e+00   9.46907e+00   9.43373e+00 -1.16167e+00   4.63740e-01   8.87150e-01
Si    9.56515e+00   6.87142e+00   9.49458e+00 -7.44457e-01  -4.27324e-01  -1.07027e-01
