64
Lattice="10.862 0 0 0 10.862 0 0 0 10.862 " PBC="1 1 1" Properties=species:S:1:pos:R:3:force:R:3 Energy="-272.53604"
Si    1.08342e+01   9.21104e-02   1.07880e+01 -1.54179e-01  -1.67617e+00   7.70980e-01
Si    2.66258e+00   2.75985e+00   9.73997e-02 -1.80686e-01  -4.63556e-01  -6.66019e-01
Si    1.08348e+01   2.66312e+00   2.73719e+00 -7.88720e-01   7.95628e-01  -6.06753e-01
Si    2.65103e+00   1.48852e-02   2.70216e+00  5.84886e-01   1.78871e-01  -1.19860e-01
Si    1.24890e+00   1.34610e+00   1.39188e+00  1.06110e+00   1.86885e-01  -6.29900e-01
Si    3.95966e+00   4.01780e+00   1.53428e+00  1.41083e+00  -1.28289e-01  -1.88209e-01
Si    1.31634e+00   4.04784e+00   4.03193e+00 -3.54210e-01   5.99785e-01   1.28724e+00
Si    4.07569e+00   1.32119e+00   4.04612e+00 -8.75423e-02   2.93735e-02  -3.31104e-01
Si    5.38907e+00   1.08942e+01   1.07568e+01  4.00378e-01  -7.78221e-01   1.17663e+00
Si    8.08844e+00   2.70288e+00   1.08684e+01  6.89527e-01  -8.64854e-02  -6.05095e-01
Si    5.53989e+00   2.53396e+00   2.67768e+00 -8.65044e-01   1.48640e+00   3.44311e-01
Si    8.18292e+00   1.08579e+01   2.66030e+00 -8.05182e-01  -1.39043e+00   4.64676e-03
Si    6.85153e+00   1.24550e+00   1.28476e+00 -7.14734e-01   2.10055e-01  -2.88201e-01
Si    9.49813e+00   4.03880e+00   1.29149e+00  1.04901e+00  -3.87666e-01   2.79756e-01
Si    6.91034e+00   3.95593e+00   4.03753e+00 -1.09418e+00   1.60828e-01  -3.51010e-01
Si    9.44847e+00   1.29451e+00   3.98432e+00  9.06427e-01   7.26154e-01   1.62627e+00
Si    1.08915e+01   5.47211e+00   1.08721e+01 -6.70821e-01  -1.70229e-01  -5.25974e-01
Si    2.69725e+00   8.13059e+00   1.82751e-02 -3.08197e-01   4.95743e-01  -6.33791e-01
Si    4.35070e-03   8.21337e+00   2.67393e+00  1.31402e-01  -3.97225e-01   1.06416e+00
Si    2.67046e+00   5.45293e+00   2.82502e+00  9.44430e-02   7.60998e-01  -2.76677e-01
Si    1.31361e+00   6.82312e+00   1.40533e+00  8.76470e-01  -3.85479e-01  -1.48943e-01
Si    4.02753e+00   9.55341e+00   1.34600e+00  9.11227e-01  -7.55060e-01   2.02042e-01
Si    1.39045e+00   9.53100e+00   4.06353e+00 -7.80185e-01  -8.18866e-02   9.30789e-01
Si    4.07452e+00   6.81980e+00   4.20634e+00  3.51392e-01  -8.04495e-01  -1.12511e+00
Si    5.31916e+00   5.40750e+00   1.72585e-01  4.22030e-01  -9.04897e-01  -1.13074e+00
Si    8.15218e+00   8.07136e+00  -6.67061e-03 -2.17126e-01  -6.19369e-01   8.75790e-01
Si    5.47446e+00   8.08461e+00   2.75741e+00 -1.12464e+00   9.90403e-01  -3.59195e-01
Si    8.29351e+00   5.31749e+00   2.74540e+00 -1.14910e+00   9.81665e-01  -2.27069e-01
Si    6.78594e+00   6.67828e+00   1.42209e+00  1.07668e+00   3.45096e-01   1.96753e-01
Si    9.48602e+00   9.45136e+00   1.34559e+00  3.61551e-01   1.10254e+00  -1.20369e+00
Si    6.76686e+00   9.55225e+00   4.06349e+00  6.13822e-01  -3.75618e-01   1.44383e-02
Si    9.58005e+00   6.78762e+00   4.05152e+00 -5.90884e-01   8.04691e-01  -6.53042e-01
Si    8.12176e-03   9.12906e-02   5.47562e+00  2.20644e-01  -5.62379e-01  -1.29887e+00
Si    2.75685e+00   2.73158e+00   5.34054e+00 -1.72836e-01   1.23085e-01   1.86815e-01
Si    1.09127e+01   2.79148e+00   8.07170e+00 -3.86021e-01   3.30181e-01   2.69215e-01
Si    2.75756e+00  -2.33580e-02   8.17582e+00  5.14420e-02   1.08616e+00  -4.53712e-01
Si    1.44958e+00   1.42580e+00   6.74573e+00 -1.62243e-01  -5.00546e-01   7.16212e-01
Si    4.07067e+00   4.04956e+00   6.75168e+00  3.23519e-01   9.75050e-01   2.21021e-01
Si    1.42740e+00   4.17178e+00   9.49772e+00 -3.80755e-01  -3.50824e-01  -1.91123e-01
Si    4.08089e+00   1.46540e+00   9.52041e+00 -1.21553e+00  -5.25165e-01   1.57081e-01
Si    5.40795e+00   4.66606e-02   5.43387e+00  5.87187e-01  -2.38661e-01   4.86868e-01
Si    8.13672e+00   2.63410e+00   5.43129e+00  7.85209e-02  -5.52560e-01  -3.53119e-02
Si    5.42215e+00   2.77151e+00   8.21002e+00 -4.90755e-01  -1.77324e-01  -9.84500e-01
Si    8.20962e+00  -6.43482e-02   8.21939e+00 -1.28510e+00   1.18580e+00  -2.76744e-01
Si    6.74797e+00   1.38406e+00   6.89076e+00  6.82490e-01  -8.39136e-01  -2.86507e-01
Si    9.41545e+00   4.09656e+00   6.67186e+00  1.09962e+00   2.29600e-01   1.19521e+00
Si    6.72076e+00   4.04515e+00   9.55115e+00 -4.72275e-01   8.39842e-01   1.31111e+00
Si    9.51999e+00   1.42197e+00   9.47832e+00 -2.05057e-01   5.59337e-01  -5.13610e-01
Si    1.08652e+01   5.56155e+00   5.43585e+00  2.03219e-01  -2.03675e+00  -1.23084e-01
Si    2.71374e+00   8.15219e+00   5.49604e+00 -2.56300e-02   1.12379e+00   1.31043e-01
Si    1.07526e+01   8.22942e+00   8.13965e+00 -2.40146e-01  -1.84689e-01  -4.99795e-01
Si    2.74417e+00   5.56555e+00   8.10340e+00 -1.56922e-01  -9.38066e-01  -2.03801e-01
Si    1.25736e+00   6.90421e+00   6.81742e+00  8.94238e-01  -2.39147e-01   2.46150e-01
Si    4.16130e+00   9.51630e+00   6.83193e+00 -7.32168e-01  -2.91351e-01  -4.16206e-01
Si    1.30526e+00   9.51839e+00   9.42959e+00  4.94099e-01  -2.19936e-03   1.32009e+00
Si    4.12227e+00   6.78241e+00   9.53153e+00  9.63880e-02   6.46791e-01  -4.29844e-02
Si    5.52467e+00   5.36075e+00   5.36739e+00 -2.03094e-01  -2.48467e-02   5.97736e-01
Si    8.17825e+00   8.12819e+00   5.37917e+00 -1.45332e-01   5.12708e-01  -2.47872e-01
Si    5.53820e+00   8.10670e+00   8.08016e+00 -9.07016e-02  -1.19895e-01   1.12516e+00
Si    8.04389e+00   5.33903e+00   8.18788e+00  1.24933e+00   2.39184e-01  -6.81481e-01
Si    6.90252e+00   6.72920e+00   6.74398e+00 -1.04013e+00   4.29171e-02  -1.98196e-01
Si    9.44386e+00   9.59248e+00   6.71269e+00  6.23266e-01  -8.58987e-01   3.79927e-01
Si    6.83401e+00   9.44818e+00   9.58425e+00 -5.84673e-01   2.16212e-01  -1.25776e+00
Si    9.45759e+00   6.74994e+00   9.43140e+00  3.29651e-01  -1.18174e-01   6.64483e-01
