64
Lattice="10.862 0 0 0 10.862 0 0 0 10.862 " PBC="1 1 1" Properties=species:S:1:pos:R:3:force:R:3 Energy="-272.67047"
Si    1.08124e+01   2.50338e-02   1.08515e+01  2.91652e-01  -1.15239e+00   5.05797e-01
Si    2.75162e+00   2.75874e+00   2.97246e-02 -9.34031e-01   2.27888e-01  -1.34922e-01
Si    1.08576e+01   2.71795e+00   2.68597e+00  3.57357e-01  -1.88840e-01   2.72768e-01
Si    2.72171e+00   2.82650e-02   2.62741e+00 -5.17872e-01  -9.10478e-01   1.24229e+00
Si    1.34860e+00   1.35134e+00   1.33247e+00 -1.33465e-01   6.40165e-01  -2.91951e-01
Si    4.07259e+00   4.05255e+00   1.46837e+00  9.45457e-01  -5.25568e-01  -4.28603e-01
Si    1.34488e+00   4.05183e+00   4.10424e+00 -2.76589e-01   4.61143e-01  -7.88069e-02
Si    4.08249e+00   1.27430e+00   4.09782e+00  5.07078e-02   1.73878e-01  -4.10422e-01
Si    5.48724e+00   1.08673e+01   1.07637e+01 -6.34096e-01  -1.04088e+00   1.43310e+00
Si    8.16529e+00   2.77774e+00   1.08885e+01 -2.33868e-01  -2.17287e-01  -8.81656e-01
Si    5.47925e+00   2.56725e+00   2.71057e+00 -4.56807e-01   9.21047e-01   2.05450e-01
Si    8.14797e+00   1.07856e+01   2.71758e+00 -4.01203e-02   5.65375e-01  -4.66113e-01
Si    6.83051e+00   1.32326e+00   1.32306e+00  3.32336e-01  -4.18739e-01  -1.61555e-01
Si    9.60392e+00   4.10612e+00   1.29616e+00 -4.39899e-01   4.05019e-01   2.03689e-01
Si    6.88656e+00   3.97258e+00   3.98269e+00 -1.05824e+00  -4.11225e-01   9.56972e-01
Si    9.51942e+00   1.30803e+00   4.03174e+00 -2.63733e-01   3.77322e-01   3.23558e-01
Si    1.09331e+01   5.53450e+00   1.07972e+01 -3.26255e-01  -9.80793e-01   1.53674e-01
Si    2.66605e+00   8.13009e+00  -1.08387e-01  6.43946e-01  -3.98197e-01   5.41469e-01
Si    6.54486e-02   8.09241e+00   2.69528e+00 -7.01901e-01   5.35061e-01   1.00995e-02
Si    2.78920e+00   5.38300e+00   2.81447e+00 -1.53458e+00   7.52518e-01  -5.65350e-01
Si    1.41542e+00   6.79822e+00   1.33461e+00  6.24269e-01  -6.37310e-01   5.95372e-01
Si    3.97160e+00   9.46168e+00   1.28600e+00  1.64653e+00   3.67956e-01  -2.82319e-01
Si    1.35176e+00   9.47219e+00   4.07798e+00  9.65765e-01   4.85383e-01   3.32095e-01
Si    4.05089e+00   6.74325e+00   4.19044e+00  3.49687e-01   5.96078e-01  -8.54121e-01
Si    5.40323e+00   5.46954e+00   1.18545e-01 -2.92667e-01  -5.27071e-01  -5.06784e-01
Si    8.09119e+00   7.99346e+00   2.03557e-02  1.06051e+00   1.54465e+00  -7.89376e-01
Si    5.34398e+00   8.09768e+00   2.72891e+00 -2.93265e-01   7.53246e-01   7.84941e-02
Si    8.13530e+00   5.34386e+00   2.69533e+00  1.13585e+00   1.54056e+00  -6.15334e-01
Si    6.77154e+00   6.83855e+00   1.40499e+00 -4.06963e-01  -1.65223e+00   8.09520e-01
Si    9.44464e+00   9.39479e+00   1.36739e+00  8.83187e-01   3.46433e-01  -5.78268e-01
Si    6.73482e+00   9.51509e+00   4.02267e+00 -2.05668e-01  -6.54984e-01   9.14200e-01
Si    9.50290e+00   6.82538e+00   4.04802e+00 -1.04512e+00  -1.88633e-01   1.18355e-02
Si   -7.53097e-03   2.66975e-02   5.45426e+00  7.10864e-01  -2.67938e-01  -1.81450e-01
Si    2.77245e+00   2.72380e+00   5.38909e+00  9.85724e-02  -1.79272e-02   2.12825e-02
Si    1.09043e+01   2.81537e+00   8.09529e+00  1.36840e-01  -7.92968e-01   2.37896e-01
Si    2.69376e+00   1.15922e-01   8.19553e+00  5.77429e-03  -1.15450e+00  -3.88014e-01
Si    1.45046e+00   1.42367e+00   6.73883e+00 -1.35765e+00  -7.30521e-02   3.86613e-01
Si    4.09101e+00   4.04221e+00   6.79686e+00  3.93195e-02   9.60651e-01  -9.20803e-01
Si    1.41232e+00   4.16922e+00   9.43381e+00 -7.95279e-06  -6.65920e-01   7.53732e-01
Si    4.02412e+00   1.33170e+00   9.57893e+00  7.02857e-01   1.10141e+00  -4.27714e-01
Si    5.41061e+00  -5.17096e-02   5.49449e+00  1.66782e-01   3.50929e-01  -6.91364e-01
Si    8.17113e+00   2.66539e+00   5.45905e+00  3.19352e-01   4.09322e-01  -7.56916e-01
Si    5.34887e+00   2.75279e+00   8.22272e+00  1.89063e-01  -8.11173e-01  -3.24503e-01
Si    8.12666e+00   9.67016e-02   8.17750e+00 -1.95469e-02  -1.83523e-01  -8.13991e-01
Si    6.68480e+00   1.44505e+00   6.74186e+00  5.73077e-01  -7.19204e-01   1.41942e+00
Si    9.47719e+00   4.11521e+00   6.79438e+00  1.39597e-01  -4.95672e-02  -4.64846e-01
Si    6.68105e+00   4.12431e+00   9.51778e+00  9.15663e-01  -3.25010e-01   1.04427e+00
Si    9.55545e+00   1.40405e+00   9.50189e+00 -4.99869e-01   9.41222e-01  -3.02534e-01
Si    1.08197e+01   5.51980e+00   5.42005e+00  6.71277e-01  -6.42747e-01   3.83863e-01
Si    2.79575e+00   8.15079e+00   5.56500e+00 -7.58887e-01   9.88634e-01  -1.13468e+00
Si    1.08221e+01   8.21208e+00   8.17926e+00  1.24047e-01  -5.01743e-01   5.70175e-02
Si    2.70879e+00   5.47842e+00   8.05139e+00  2.03244e-01  -2.19226e-01  -3.77146e-03
Si    1.33262e+00   6.90479e+00   6.80011e+00 -4.69655e-01  -8.41748e-01   8.48461e-02
Si    4.08840e+00   9.56157e+00   6.91211e+00  1.27094e-01  -7.36519e-01   4.32079e-01
Si    1.37248e+00   9.52863e+00   9.49451e+00 -9.22987e-01   7.78733e-01  -1.48185e-01
Si    4.05231e+00   6.69808e+00   9.49209e+00  2.61125e-01   7.70363e-01   2.27151e-01
Si    5.48637e+00   5.37342e+00   5.31361e+00  1.23067e-01  -7.24593e-01   1.34594e+00
Si    8.08554e+00   8.18433e+00   5.47575e+00  7.36011e-01   1.67032e-01  -8.91005e-01
Si    5.47669e+00   8.05022e+00   8.18579e+00 -7.97432e-01   1.24591e+00   1.72604e-01
Si    8.11251e+00   5.39261e+00   8.18177e+00 -8.46955e-01   4.65333e-01  -1.11606e+00
Si    6.73215e+00   6.79630e+00   6.74321e+00  8.37533e-01  -1.26780e+00   2.77569e-01
Si    9.50681e+00   9.54217e+00   6.83252e+00 -8.39486e-01   4.68377e-01  -2.62120e-01
Si    6.87044e+00   9.46933e+00   9.49578e+00 -4.72020e-01  -3.17223e-01  -8.57446e-02
Si    9.46650e+00   6.73259e+00   9.45005e+00  4.11217e-01   8.75389e-01   5.24617e-01
