64
Lattice="10.862 0 0 0 10.862 0 0 0 10.862 " PBC="1 1 1" Properties=species:S:1:pos:R:3:force:R:3 Energy="-272.60717"
Si    1.09346e+01   1.07992e-02   1.08219e+01  9.12982e-01  -1.55976e-01   3.76197e-01
Si    2.77652e+00   2.69414e+00   5.66750e-03 -5.74852e-01   2.21772e-01   2.02102e-01
Si    1.09175e+01   2.77662e+00   2.70653e+00 -6.79491e-01  -4.33999e-01   8.05208e-02
Si    2.79512e+00  -3.05626e-02   2.80260e+00 -8.51262e-01   6.97947e-01  -1.06704e+00
Si    1.39435e+00   1.37639e+00   1.39303e+00  5.74371e-01  -6.19957e-01  -4.14762e-03
Si    4.08093e+00   4.16075e+00   1.28856e+00  7.38956e-02   2.97839e-01  -3.73383e-01
Si    1.41432e+00   4.06321e+00   4.05156e+00  1.05383e-01   4.10923e-01  -2.83538e-02
Si    4.04292e+00   1.38372e+00   4.15551e+00  2.66774e-01   2.49102e-01  -8.60132e-01
Si    5.39756e+00   1.09102e+01   1.08669e+01 -3.32267e-01   3.08495e-01   4.79081e-01
Si    8.18626e+00   2.75939e+00   1.09391e+01 -4.84271e-01  -5.13513e-01  -1.75600e-01
Si    5.29370e+00   2.78917e+00   2.71382e+00  6.67708e-01   9.61040e-03   8.42598e-01
Si    8.17116e+00   1.09033e+01   2.69189e+00 -2.73630e-01   1.87887e-01  -7.22423e-02
Si    6.69465e+00   1.43505e+00   1.42785e+00  8.35668e-01  -2.42182e-01  -5.32183e-01
Si    9.52499e+00   4.17218e+00   1.40434e+00 -5.48751e-01  -8.90473e-01   2.64729e-01
Si    6.67172e+00   4.14743e+00   4.12614e+00 -6.43288e-01   3.84861e-01  -1.10221e+00
Si    9.50793e+00   1.40667e+00   4.06429e+00 -7.21268e-01   1.03795e+00   7.06397e-02
Si    1.08454e+01   5.41408e+00   1.08853e+01  4.80883e-01  -1.97959e-01  -6.76157e-01
Si    2.76809e+00   8.11402e+00   6.07419e-02 -8.14641e-01   2.81672e-02  -6.11513e-01
Si   -7.74374e-02   8.07400e+00   2.71607e+00 -2.36782e-01   1.13906e+00  -2.76442e-01
Si    2.71731e+00   5.48941e+00   2.65677e+00 -2.26231e-01  -2.91199e-01   2.38636e-01
Si    1.25591e+00   6.78682e+00   1.33802e+00  1.25958e+00   1.60724e-01   1.74028e-01
Si    4.09548e+00   9.50380e+00   1.39203e+00  3.49246e-01   2.55275e-01  -9.00996e-02
Si    1.33986e+00   9.49243e+00   3.99251e+00 -8.46181e-01  -1.90145e-02   9.30657e-01
Si    4.11617e+00   6.80065e+00   4.01548e+00 -7.13552e-01   9.41539e-01  -3.46774e-01
Si    5.48369e+00   5.52786e+00  -1.20088e-01 -7.67781e-01  -1.18045e+00   3.88494e-01
Si    8.18486e+00   8.20225e+00   1.62704e-02 -3.99828e-01  -4.04952e-01  -5.10305e-01
Si    5.52196e+00   8.20780e+00   2.71911e+00 -7.12657e-01  -6.44647e-01  -2.49864e-01
Si    8.03014e+00   5.44738e+00   2.69376e+00  4.68526e-01   2.01441e-01   4.84584e-01
Si    6.75748e+00   6.82520e+00   1.28231e+00  7.18974e-01   5.05432e-01   5.59683e-01
Si    9.53970e+00   9.59905e+00   1.26485e+00  1.76212e-03  -9.04124e-01   1.51230e+00
Si    6.84724e+00   9.51850e+00   4.07650e+00  9.00659e-02   5.88422e-01   2.84397e-01
Si    9.45844e+00   6.71744e+00   4.12569e+00  3.06204e-01  -4.49081e-01  -1.19419e-01
Si   -8.11428e-02   1.18180e-02   5.41646e+00  1.53786e+00  -1.74541e-01   1.56033e-01
Si    2.66641e+00   2.69394e+00   5.44684e+00  5.80587e-03  -1.76241e-01   5.43744e-01
Si    1.07907e+01   2.64405e+00   8.16123e+00  6.11439e-01   6.60309e-01   4.93262e-01
Si    2.64295e+00  -1.42415e-01   8.07763e+00  9.89429e-01   1.76702e+00   8.38859e-01
Si    1.33513e+00   1.34248e+00   6.87935e+00 -5.27925e-01  -4.81124e-01  -1.54028e+00
Si    4.10279e+00   3.98605e+00   6.75275e+00 -4.03208e-01   4.29347e-01   2.05229e-01
Si    1.35412e+00   3.99312e+00   9.54637e+00 -3.98651e-01   2.05376e-01  -3.87542e-01
Si    4.03076e+00   1.35904e+00   9.45332e+00  3.42485e-01  -8.17041e-01  -7.91809e-01
Si    5.47496e+00   8.93338e-02   5.40648e+00 -8.45637e-02  -1.19910e+00   3.17443e-01
Si    8.05316e+00   2.88468e+00   5.41313e+00  9.57842e-01  -2.39514e+00  -1.85169e-01
Si    5.50243e+00   2.67961e+00   8.07957e+00 -8.42739e-01  -6.47120e-01   4.54838e-01
Si    8.14068e+00  -1.21847e-01   8.17332e+00  1.01368e+00   1.16986e+00   1.68776e-01
Si    6.87873e+00   1.33088e+00   6.77873e+00  5.36610e-03   2.77814e-01  -3.90608e-02
Si    9.48340e+00   4.01472e+00   6.78020e+00  4.24641e-01   3.04337e-01   5.82333e-01
Si    6.76384e+00   3.99691e+00   9.48616e+00  1.24267e+00   1.02541e+00   1.00218e-01
Si    9.55089e+00   1.32453e+00   9.58972e+00 -1.61590e+00  -1.00223e-01  -8.44264e-01
Si    1.09019e+01   5.29279e+00   5.48112e+00 -5.39715e-01   1.08384e+00  -8.43269e-01
Si    2.70327e+00   8.15022e+00   5.34694e+00 -2.32157e-01  -6.85136e-01   3.22526e-01
Si    1.09359e+01   8.09870e+00   8.19195e+00 -4.40998e-01  -8.39311e-01  -7.73164e-01
Si    2.75152e+00   5.30035e+00   8.15042e+00 -3.38330e-01   5.34673e-01  -7.52877e-02
Si    1.38720e+00   6.69474e+00   6.77608e+00  4.06264e-01   4.63012e-01   1.89286e-01
Si    4.01904e+00   9.53246e+00   6.69745e+00  1.30350e+00  -3.80995e-01  -8.19364e-02
Si    1.39653e+00   9.43374e+00   9.47167e+00  8.23132e-02   2.17943e-02   1.39535e+00
Si    4.05264e+00   6.80138e+00   9.43898e+00  1.84889e-01   2.37816e-01  -7.70572e-02
Si    5.30278e+00   5.50943e+00   5.45916e+00  1.44499e+00  -4.65061e-01   6.09794e-01
Si    8.14668e+00   8.12050e+00   5.45650e+00  7.50429e-02  -2.43952e-02   2.17461e-01
Si    5.44425e+00   8.23315e+00   8.14461e+00 -7.26051e-01  -3.55333e-01  -2.53319e-01
Si    8.23794e+00   5.39685e+00   8.16634e+00 -1.21504e+00  -1.19982e-02   2.66844e-01
Si    6.79250e+00   6.78634e+00   6.85935e+00 -9.96457e-02  -1.28018e-01  -3.72969e-01
Si    9.58262e+00   9.42431e+00   6.79829e+00 -7.98184e-01   1.30824e-01   2.80841e-01
Si    6.73713e+00   9.54396e+00   9.58479e+00  5.35651e-01  -5.19046e-01  -4.05451e-01
Si    9.53866e+00   6.77211e+00   9.55060e+00 -1.86053e-01   4.09475e-01  -2.65054e-01
