64
Lattice="10.862 0 0 0 10.862 0 0 0 10.862 " PBC="1 1 1" Properties=species:S:1:pos:R:3:force:R:3 Energy="-272.65005"
Si    1.07484e+01   5.68598e-02   1.07385e+01  1.20610e+00   4.84975e-01   1.60668e-01
Si    2.64899e+00   2.75815e+00   5.54990e-02 -2.51351e-01   2.29271e-01   7.05924e-01
Si    1.07965e+01   2.67124e+00   2.75242e+00  3.59268e-01   4.30964e-03  -2.85941e-01
Si    2.74976e+00   5.69575e-02   2.66993e+00 -3.20135e-01  -1.28565e-01   2.35736e-01
Si    1.27939e+00   1.34599e+00   1.36555e+00 -1.52184e-02  -4.81215e-02  -5.38831e-01
Si    4.04257e+00   3.99493e+00   1.49769e+00 -3.89261e-01   5.14831e-01  -1.29586e+00
Si    1.20518e+00   4.05593e+00   4.14031e+00  1.57155e+00  -2.27235e-01  -1.02498e+00
Si    4.07013e+00   1.37322e+00   4.08710e+00  3.77984e-01   3.94416e-02  -1.57802e-01
Si    5.42920e+00   1.08220e+01   1.08587e+01 -3.95804e-01   9.55988e-01   7.07785e-02
Si    8.20880e+00   2.68069e+00   1.08158e+01 -1.15412e+00   6.99959e-01   7.34162e-02
Si    5.46707e+00   2.62026e+00   2.63100e+00  6.72656e-01  -4.88898e-01   1.12862e+00
Si    8.20474e+00   1.08239e+01   2.65894e+00 -3.11446e-01  -4.63590e-01   2.33446e-01
Si    6.89764e+00   1.26272e+00   1.27584e+00 -7.88698e-01   6.07641e-01   2.43684e-01
Si    9.58969e+00   4.00029e+00   1.26778e+00 -8.71328e-01   5.57841e-01   1.16619e+00
Si    6.83334e+00   3.92731e+00   4.08423e+00 -8.48299e-01   9.43507e-01  -1.33557e+00
Si    9.49324e+00   1.28965e+00   4.06775e+00 -6.21408e-01   6.70818e-01  -1.59076e-02
Si    1.09092e+01   5.43147e+00   1.08781e+01 -6.55185e-01   1.16095e+00  -2.68573e-01
Si    2.75201e+00   8.14417e+00  -2.16358e-02 -6.89916e-01   1.40076e-01   4.62882e-01
Si    2.08358e-04   8.22888e+00   2.79579e+00  9.05830e-01   7.31225e-01  -1.81706e+00
Si    2.61582e+00   5.36634e+00   2.72524e+00 -1.41881e-01   4.40387e-02   6.63754e-01
Si    1.35948e+00   6.83944e+00   1.41191e+00 -1.25152e-01  -2.54533e-02  -4.04993e-01
Si    4.07288e+00   9.51731e+00   1.35326e+00  5.55176e-02  -2.46285e-01   1.43560e-01
Si    1.45835e+00   9.57913e+00   4.08918e+00 -5.92536e-01  -3.32719e-01  -2.39629e-01
Si    3.99506e+00   6.71419e+00   4.05108e+00  4.64728e-01   7.66905e-01   6.47305e-01
Si    5.40480e+00   5.35371e+00   1.26649e-01 -5.61691e-01   8.15801e-01  -6.25893e-01
Si    8.11352e+00   8.08988e+00   7.96836e-02 -4.03068e-01  -3.41555e-01  -3.66570e-01
Si    5.38134e+00   8.19303e+00   2.80588e+00 -1.69465e-01  -8.53298e-01  -7.05046e-01
Si    8.21410e+00   5.32202e+00   2.77774e+00  3.04636e-01   7.64098e-02  -7.68512e-01
Si    6.75653e+00   6.71440e+00   1.51599e+00  2.73247e-01   3.95749e-01  -3.43782e-01
Si    9.53554e+00   9.52870e+00   1.20870e+00 -2.07607e-01  -7.40208e-01   1.89138e+00
Si    6.75630e+00   9.55106e+00   4.07588e+00  1.05099e+00  -5.00414e-01  -4.68801e-01
Si    9.61000e+00   6.80542e+00   4.00839e+00 -1.04980e+00  -9.39638e-01   1.16144e+00
Si   -2.21749e-02  -2.26039e-02   5.37452e+00  1.66519e+00   1.28316e+00   5.49821e-01
Si    2.72312e+00   2.80276e+00   5.41267e+00  3.00640e-01  -2.48858e-01   6.48690e-01
Si    1.08602e+01   2.77182e+00   8.13698e+00  9.17234e-01   2.38676e-01  -4.10597e-01
Si    2.74673e+00  -1.44259e-02   8.17197e+00  3.13646e-02   3.04690e-01   7.87810e-01
Si    1.40965e+00   1.37528e+00   6.80248e+00 -6.82446e-01  -1.19559e-01  -4.63300e-01
Si    4.17330e+00   4.19655e+00   6.76240e+00 -1.66155e+00  -6.15754e-01  -1.54490e-02
Si    1.37064e+00   4.13914e+00   9.53224e+00  2.96917e-01  -2.62188e-01  -9.02488e-01
Si    4.03255e+00   1.49375e+00   9.62974e+00  2.87074e-01  -1.77128e+00  -1.27646e+00
Si    5.45946e+00  -1.42793e-02   5.43253e+00 -5.29075e-01   7.87860e-01   2.07661e-01
Si    8.12475e+00   2.70620e+00   5.41649e+00  1.06946e+00  -1.39875e+00   1.30999e+00
Si    5.34681e+00   2.79768e+00   8.17373e+00  7.32973e-01  -1.15401e+00  -2.60327e-01
Si    8.06773e+00  -4.27815e-02   8.15495e+00  8.69178e-01   3.04477e-01   1.13750e-01
Si    6.76090e+00   1.31372e+00   6.84580e+00 -4.89341e-01   1.34624e+00  -3.82097e-01
Si    9.54725e+00   4.10187e+00   6.74264e+00 -7.48801e-01  -1.61434e-02   2.47651e-01
Si    6.71457e+00   4.03977e+00   9.54436e+00  1.25442e+00   6.85859e-01  -3.11022e-02
Si    9.44960e+00   1.47326e+00   9.38121e+00  6.88606e-02  -1.68902e+00  -7.86198e-02
Si    1.09285e+01   5.47081e+00   5.46618e+00 -1.08736e+00   6.75173e-01  -1.07810e-01
Si    2.75933e+00   8.22347e+00   5.47350e+00  1.74614e-01  -8.08957e-01  -3.91416e-01
Si    1.07290e+01   8.21966e+00   8.11262e+00  7.61911e-01  -6.93799e-01  -1.41797e-01
Si    2.73115e+00   5.52151e+00   8.12686e+00 -1.34298e-02  -6.65737e-01   5.31236e-02
Si    1.36563e+00   6.85768e+00   6.79204e+00 -2.49928e-01   6.59062e-01   3.94519e-01
Si    4.17560e+00   9.50751e+00   6.82097e+00 -3.57830e-01  -1.95362e-01   2.61720e-01
Si    1.28106e+00   9.45870e+00   9.52666e+00  5.90321e-01   7.44281e-01  -6.60725e-01
Si    4.09080e+00   6.81955e+00   9.47547e+00  7.22144e-01  -9.25306e-01   9.79425e-01
Si    5.50595e+00   5.38595e+00   5.33359e+00  1.19779e-01   7.07004e-01   2.37066e-01
Si    8.15346e+00   8.10927e+00   5.33137e+00  2.29496e-01   4.39266e-01   7.00146e-01
Si    5.52189e+00   8.04939e+00   8.11052e+00 -1.84640e-01   9.65513e-01   5.01955e-01
Si    8.14618e+00   5.43522e+00   8.13167e+00 -2.05705e-02  -1.62533e+00   6.22123e-01
Si    6.87275e+00   6.70575e+00   6.78191e+00 -6.11581e-01   7.18451e-01  -1.47483e+00
Si    9.48620e+00   9.60873e+00   6.67815e+00 -1.28560e+00  -1.52081e+00   8.27135e-01
Si    6.76559e+00   9.47159e+00   9.58193e+00  2.73377e-01  -8.53128e-01  -9.19073e-01
Si    9.43098e+00   6.77526e+00   9.48346e+00  8.78058e-01   2.00530e-01   7.48472e-01
