64
Lattice="10.862 0 0 0 10.862 0 0 0 10.862 " PBC="1 1 1" Properties=species:S:1:pos:R:3:force:R:3 Energy="-272.09713"
Si    1.09137e+01  -2.81726e-02   1.09242e+01 -1.44047e+00   1.67649e-01   3.75225e-01
Si    2.78621e+00   2.69114e+00   1.43465e-02 -1.27187e-01   8.83016e-02  -3.26366e-01
Si    1.08353e+01   2.79505e+00   2.73274e+00 -2.55119e-01  -2.88911e-01  -1.15878e+00
Si    2.70178e+00  -2.59049e-04   2.66848e+00 -1.05701e-01   1.80839e-01   6.22553e-01
Si    1.37885e+00   1.40033e+00   1.34578e+00 -4.11671e-01   1.08143e-01   6.65352e-01
Si    4.08988e+00   4.13161e+00   1.29558e+00  1.83389e-01  -2.10769e-02   4.54540e-01
Si    1.26349e+00   4.11115e+00   4.08666e+00  2.02310e+00  -8.74639e-01  -1.82061e-01
Si    4.03848e+00   1.40847e+00   4.02423e+00  4.55305e-01  -1.00601e+00   4.31302e-01
Si    5.49076e+00   1.07976e+01   1.08289e+01 -5.21913e-01   1.49156e+00   3.28618e-02
Si    8.11584e+00   2.68816e+00   1.08435e+01 -8.58931e-01   8.56848e-01   1.13918e+00
Si    5.40270e+00   2.74424e+00   2.64937e+00  5.45053e-01   4.13048e-01   5.46792e-01
Si    8.14679e+00   1.09280e+01   2.77330e+00  1.56926e-01  -1.89148e-01   2.05978e-01
Si    6.76403e+00   1.31518e+00   1.36208e+00  2.24278e-01   4.88518e-01  -1.46661e-01
Si    9.40706e+00   4.15243e+00   1.33764e+00  4.78503e-01  -8.98235e-01   5.34972e-01
Si    6.76582e+00   4.19504e+00   4.04878e+00 -1.95665e-01  -1.01931e+00   4.59205e-01
Si    9.53252e+00   1.46528e+00   4.12573e+00  5.12004e-02  -1.48620e+00   2.36086e-01
Si    1.08825e+01   5.40130e+00   1.09170e+01 -2.42823e-01   8.73567e-02  -6.93574e-01
Si    2.71894e+00   8.16226e+00  -4.72429e-02  1.31899e-02  -1.43185e+00   5.57905e-01
Si    1.23118e-01   8.12397e+00   2.72758e+00 -7.25207e-01  -4.61948e-02  -4.00839e-01
Si    2.78190e+00   5.39823e+00   2.79790e+00 -3.47362e-01  -1.19088e-01  -3.02687e-01
Si    1.44121e+00   6.67058e+00   1.39516e+00  5.36619e-02   1.35853e+00  -4.09458e-01
Si    4.02686e+00   9.58123e+00   1.24185e+00 -1.69022e-01  -3.56319e-01   4.15900e-01
Si    1.41352e+00   9.44740e+00   4.11960e+00  1.25104e-01   5.51318e-01  -1.30413e+00
Si    4.04877e+00   6.88295e+00   4.07976e+00  5.27434e-01  -4.37582e-01   1.14426e-02
Si    5.45652e+00   5.50474e+00  -4.72186e-02 -1.10680e+00  -4.72656e-01  -9.67337e-01
Si    8.21896e+00   8.22137e+00  -5.22347e-02 -9.33755e-01  -5.40108e-01  -5.22390e-01
Si    5.31638e+00   8.27419e+00   2.63320e+00  1.05548e+00  -7.81992e-01   3.69681e-01
Si    8.13125e+00   5.53353e+00   2.73578e+00 -5.33485e-01   6.59214e-01  -1.05642e+00
Si    6.71846e+00   6.88655e+00   1.23955e+00  1.09249e+00   5.13403e-01   1.48305e+00
Si    9.46179e+00   9.47562e+00   1.45561e+00  1.37489e+00   5.92200e-01  -2.67503e-01
Si    6.77829e+00   9.51179e+00   4.07407e+00 -5.38556e-01  -2.90483e-02   2.29259e-01
Si    9.54360e+00   6.86003e+00   4.05766e+00 -2.08861e-01  -7.76230e-01   4.33115e-01
Si    4.22349e-02  -1.49062e-01   5.42037e+00 -1.01720e+00   1.50224e+00  -3.03375e-01
Si    2.71290e+00   2.71166e+00   5.42673e+00 -4.26432e-01   3.32591e-01  -2.66137e-01
Si    1.08292e+01   2.63602e+00   8.19741e+00  1.03671e+00  -9.84808e-01   2.30260e-01
Si    2.73481e+00   3.41213e-02   8.10428e+00  8.71343e-02  -1.02927e+00   1.59593e+00
Si    1.39145e+00   1.23844e+00   6.71933e+00 -9.54209e-01   1.46291e+00   6.31140e-01
Si    4.17997e+00   4.01879e+00   6.75537e+00 -1.06271e+00   4.11138e-01   5.21049e-02
Si    1.34630e+00   3.99706e+00   9.57448e+00 -1.61043e-02  -1.69416e-01  -4.18933e-01
Si    4.17700e+00   1.37942e+00   9.49427e+00 -1.01206e+00  -7.84436e-01   1.92343e-01
Si    5.32625e+00  -8.93224e-02   5.50096e+00  1.25289e+00   1.75474e+00  -1.33603e+00
Si    8.10522e+00   2.74914e+00   5.47002e+00  2.22358e-01   6.13530e-01  -1.60525e-02
Si    5.45729e+00   2.73786e+00   8.18374e+00  5.50581e-01  -7.06475e-01  -9.16783e-01
Si    8.24932e+00  -7.04900e-03   8.12210e+00 -4.71139e-01  -7.07483e-02  -1.21013e-01
Si    6.81351e+00   1.32333e+00   6.82911e+00 -6.90660e-01  -8.67023e-02  -3.61796e-01
Si    9.58861e+00   4.02551e+00   6.87742e+00 -2.00469e+00   7.77597e-01  -6.13300e-01
Si    6.76283e+00   4.05420e+00   9.49645e+00  4.89745e-01   6.77938e-01   5.50235e-01
Si    9.41692e+00   1.33161e+00   9.62625e+00  1.95001e+00  -6.85516e-01  -1.09785e+00
Si    1.08183e+01   5.35851e+00   5.38874e+00 -5.67458e-01   1.19553e+00   9.47362e-01
Si    2.66175e+00   8.11524e+00   5.45678e+00  3.07601e-01  -6.87871e-01   5.42354e-01
Si    1.09623e+01   8.12584e+00   8.11386e+00 -8.59715e-01  -9.66473e-01   5.19939e-01
Si    2.70494e+00   5.27142e+00   8.13418e+00  7.67368e-02   3.57619e-01  -3.24495e-01
Si    1.34549e+00   6.64651e+00   6.77998e+00  2.97183e-01   3.54883e-01  -1.82040e-01
Si    4.01558e+00   9.45815e+00   6.77914e+00 -6.59113e-01   6.29894e-02   3.89830e-01
Si    1.33205e+00   9.46281e+00   9.57767e+00  7.09412e-01   1.12366e+00  -1.61994e+00
Si    4.00895e+00   6.78594e+00   9.36223e+00  4.87542e-01  -6.90419e-02   1.18981e+00
Si    5.43962e+00   5.53838e+00   5.47962e+00 -4.57048e-02  -4.57864e-02  -4.00623e-01
Si    8.09938e+00   8.08907e+00   5.45427e+00  3.77714e-01   7.15076e-01  -3.19434e-01
Si    5.38384e+00   8.21969e+00   8.12516e+00  1.12782e-01  -6.08115e-02   6.40813e-01
Si    8.08378e+00   5.47080e+00   8.18138e+00  9.06619e-01  -1.18739e+00  -4.59921e-01
Si    6.75850e+00   6.87124e+00   6.90643e+00  1.82803e-02  -6.47271e-01  -1.06338e+00
Si    9.54240e+00   9.39418e+00   6.77637e+00 -2.03211e-01   4.45799e-01   7.79397e-02
Si    6.79173e+00   9.59873e+00   9.42483e+00  8.56501e-01  -1.47517e+00   1.17160e-01
Si    9.53137e+00   6.72792e+00   9.46222e+00  6.13119e-01   1.08660e+00   6.77689e-01
