64
Lattice="10.862 0 0 0 10.862 0 0 0 10.862 " PBC="1 1 1" Properties=species:S:1:pos:R:3:force:R:3 Energy="-272.35447"
Si    1.08445e+01  -1.30867e-02   1.09178e+01 -7.55904e-02  -4.64493e-01   2.86752e-01
Si    2.70712e+00   2.72012e+00  -2.56744e-02  9.57933e-01  -2.51775e-01   1.59966e-02
Si    1.08251e+01   2.73844e+00   2.75402e+00 -7.03233e-01   6.63844e-01  -1.32017e+00
Si    2.69565e+00   4.92895e-02   2.73867e+00  2.26985e-01   8.41202e-01  -1.43677e+00
Si    1.23103e+00   1.47671e+00   1.29391e+00  1.56840e+00  -1.23479e+00   1.18177e+00
Si    4.16764e+00   4.08116e+00   1.31618e+00 -6.18099e-01  -4.09017e-02   1.98033e-01
Si    1.37323e+00   4.08667e+00   3.94584e+00  1.00171e-01  -2.51689e-01   1.89436e+00
Si    4.11356e+00   1.43583e+00   4.05354e+00 -1.23454e+00   3.29190e-01   4.21049e-01
Si    5.42709e+00   1.08577e+01   1.08098e+01  1.19735e+00  -1.50066e-01   6.31555e-01
Si    8.02386e+00   2.69265e+00   1.08399e+01  3.91243e-01  -5.76372e-01   1.05925e+00
Si    5.50806e+00   2.81740e+00   2.79723e+00 -3.91008e-01   1.78510e-02  -4.11879e-01
Si    8.18215e+00   1.08225e+01   2.85413e+00 -9.16101e-01   6.79167e-01  -7.95605e-01
Si    6.71045e+00   1.32230e+00   1.46571e+00  1.02526e+00  -1.38225e-01  -5.19281e-01
Si    9.33130e+00   4.06050e+00   1.39669e+00  1.06277e+00  -5.05256e-01  -3.05621e-01
Si    6.81917e+00   4.23708e+00   4.13930e+00 -5.12301e-02  -9.09793e-01  -6.12119e-01
Si    9.53798e+00   1.41868e+00   4.09275e+00 -6.56643e-01  -2.45842e-01   4.63166e-01
Si    1.07858e+01   5.33449e+00   1.08904e+01  9.19313e-01   2.35097e-01   2.31552e-01
Si    2.72612e+00   8.18790e+00   7.06675e-02 -1.14791e-02  -3.42715e-01  -1.06900e+00
Si   -1.31566e-03   8.15121e+00   2.68679e+00  2.76941e-01  -8.38445e-01   1.16015e+00
Si    2.78119e+00   5.41541e+00   2.69421e+00  1.69071e-01   5.68156e-03  -6.82522e-01
Si    1.40399e+00   6.74759e+00   1.34668e+00 -9.22033e-01  -5.40190e-02   4.88085e-02
Si    4.11116e+00   9.55646e+00   1.31448e+00 -1.19555e+00   6.34522e-01   6.19035e-01
Si    1.39469e+00   9.54749e+00   4.07445e+00 -4.56253e-01  -7.67439e-01  -2.55102e-01
Si    4.13571e+00   6.75558e+00   4.01975e+00 -1.24458e-02   3.80078e-01   3.99091e-01
Si    5.46351e+00   5.50823e+00  -1.73321e-02  2.80782e-01  -1.07187e+00  -2.28156e-01
Si    8.25545e+00   8.20042e+00   3.27006e-02 -1.17586e+00  -4.06477e-01  -1.02727e+00
Si    5.39688e+00   8.22893e+00   2.64566e+00  3.08619e-01  -1.10263e+00   4.34574e-01
Si    8.10618e+00   5.52355e+00   2.67650e+00 -7.40669e-01  -3.60154e-02   1.09310e-01
Si    6.74956e+00   6.88837e+00   1.28565e+00  8.42825e-01   1.47454e-01   6.22041e-01
Si    9.47282e+00   9.51733e+00   1.43684e+00  8.01013e-01   4.08164e-01  -1.07286e-01
Si    6.74319e+00   9.43286e+00   4.07970e+00  2.51628e-01   7.40586e-01   6.19515e-01
Si    9.47996e+00   6.67297e+00   4.11375e+00  9.39414e-01   1.42205e+00  -1.21290e+00
Si    5.86954e-02   8.40710e-02   5.39252e+00 -9.09063e-01  -1.29466e+00  -5.16982e-01
Si    2.64288e+00   2.72547e+00   5.49552e+00  3.23591e-01  -6.55959e-02  -2.20517e+00
Si    1.08224e+01   2.62762e+00   8.12059e+00 -1.03485e+00  -2.00574e-01   6.87406e-01
Si    2.73575e+00   3.26908e-02   8.19684e+00 -7.04478e-01   5.38300e-01  -9.53027e-01
Si    1.29175e+00   1.36392e+00   6.71317e+00  1.35313e+00  -2.32806e-01   2.07055e+00
Si    3.97787e+00   3.97696e+00   6.83457e+00  1.38362e+00   1.03296e+00   5.48075e-01
Si    1.28837e+00   3.96180e+00   9.49225e+00 -4.63284e-01   3.42162e-01   6.29759e-01
Si    4.18795e+00   1.34959e+00   9.49134e+00 -1.13880e+00   1.04120e+00  -2.80629e-01
Si    5.36517e+00   4.77832e-02   5.38988e+00  4.71085e-01  -1.18866e+00  -2.70265e-01
Si    8.12554e+00   2.78799e+00   5.40945e+00 -2.18959e-01  -1.06452e+00  -3.21553e-01
Si    5.55740e+00   2.71844e+00   8.11673e+00 -8.35044e-01  -7.84707e-01  -5.93014e-01
Si    8.26953e+00  -1.17857e-01   8.09950e+00 -1.19041e+00   1.30238e+00   1.24158e-01
Si    6.82988e+00   1.25900e+00   6.67170e+00  6.34837e-01   8.10346e-01   1.41159e+00
Si    9.41496e+00   4.01235e+00   6.81013e+00  1.37069e+00   4.05384e-01   4.24206e-02
Si    6.81613e+00   4.10447e+00   9.47221e+00 -2.53482e-01   6.14038e-01   1.28532e-01
Si    9.46377e+00   1.25576e+00   9.63635e+00 -7.76190e-02   9.37840e-01  -1.84154e+00
Si    1.08254e+01   5.33185e+00   5.40846e+00  5.15099e-01  -4.13779e-02   6.01468e-01
Si    2.74295e+00   8.09713e+00   5.37066e+00 -5.50591e-01   6.67481e-02   5.06981e-01
Si    1.09625e+01   8.08394e+00   8.15805e+00 -6.94959e-01   1.63778e+00  -1.72821e-01
Si    2.66222e+00   5.31497e+00   8.26862e+00  3.00704e-01   1.27142e+00  -1.14895e+00
Si    1.32582e+00   6.74574e+00   6.79738e+00  1.24252e+00  -1.10325e+00  -5.91677e-01
Si    3.99061e+00   9.56525e+00   6.74006e+00  5.85459e-01  -6.75272e-01   3.24551e-01
Si    1.36273e+00   9.55209e+00   9.53192e+00  2.35533e-01  -6.44524e-01   1.96888e-01
Si    4.07881e+00   6.77205e+00   9.55373e+00 -9.51809e-01   5.65327e-01  -5.95793e-01
Si    5.41262e+00   5.41048e+00   5.50879e+00 -5.29227e-01   5.74618e-01   3.85146e-01
Si    8.18475e+00   8.07884e+00   5.39390e+00 -2.65650e-01   7.81062e-01   6.61352e-01
Si    5.36936e+00   8.16315e+00   8.12724e+00  2.53456e-01   1.07034e-01  -1.15988e-01
Si    8.17645e+00   5.45254e+00   8.12166e+00  3.89819e-01   3.76288e-01   1.05105e+00
Si    6.82633e+00   6.80895e+00   6.82554e+00 -7.83182e-01   2.15369e-02  -3.67546e-01
Si    9.60117e+00   9.50635e+00   6.71881e+00  5.14988e-01  -1.26685e+00  -5.94364e-02
Si    6.82004e+00   9.49671e+00   9.45303e+00  9.86978e-02  -3.84332e-01   4.23439e-01
Si    9.61643e+00   6.81422e+00   9.52926e+00 -1.23080e+00  -5.95357e-01  -1.71309e-01
