64
Lattice="10.862 0 0 0 10.862 0 0 0 10.862 " PBC="1 1 1" Properties=species:S:1:pos:R:3:force:R:3 Energy="-272.58995"
Si    1.07902e+01   1.08117e-01   1.08448e+01 -2.50595e-04  -7.92735e-01  -9.74660e-02
Si    2.71949e+00   2.74878e+00   2.92689e-04 -4.38239e-01   3.21349e-01   6.56761e-01
Si    1.07441e+01   2.74034e+00   2.71032e+00  5.05689e-01   2.93425e-01  -2.43048e-01
Si    2.68650e+00   6.93781e-02   2.59028e+00  5.94525e-01   1.00649e-01   1.73438e+00
Si    1.26700e+00   1.44085e+00   1.36167e+00  3.09422e-01   1.12084e-01  -6.87799e-01
Si    4.09882e+00   3.98265e+00   1.47747e+00  4.37859e-01   2.62195e-01  -7.97541e-01
Si    1.32012e+00   4.09808e+00   3.99605e+00 -3.47275e-01   2.65737e-01   8.88854e-01
Si    4.09680e+00   1.36441e+00   4.13393e+00 -8.07185e-01  -3.75477e-02  -1.29245e+00
Si    5.40868e+00   1.07606e+01   1.08578e+01  5.03363e-01   4.52128e-01  -2.39776e-01
Si    8.09119e+00   2.67620e+00   1.08271e+01 -3.20727e-02  -6.80310e-01   7.91624e-01
Si    5.55612e+00   2.59244e+00   2.74807e+00 -1.05421e+00   3.16903e-01   4.09440e-02
Si    8.13953e+00   1.06826e+01   2.79110e+00  4.51194e-01   1.46997e+00  -3.69598e-01
Si    6.82687e+00   1.19436e+00   1.40080e+00  7.82487e-02   2.35088e-01  -7.58422e-01
Si    9.38053e+00   4.05354e+00   1.33189e+00  4.26844e-01   2.78391e-01   6.13626e-02
Si    6.83581e+00   4.01116e+00   4.05292e+00 -2.64577e-01   1.03125e+00   4.64518e-01
Si    9.52069e+00   1.32556e+00   4.05766e+00 -9.50021e-01  -1.34577e-01  -9.12061e-01
Si    1.07989e+01   5.39322e+00   1.08619e+01  6.14301e-01   9.00261e-02   4.73682e-01
Si    2.68062e+00   8.24391e+00  -1.28515e-02 -2.23608e-01  -8.12506e-01   6.45186e-01
Si    5.22117e-02   8.12311e+00   2.75936e+00  2.11970e-02   5.11659e-01  -7.07826e-01
Si    2.75612e+00   5.44006e+00   2.72937e+00 -5.03827e-01  -2.17407e-01  -5.20972e-01
Si    1.36145e+00   6.77135e+00   1.31906e+00  6.71907e-02   1.26649e-01   2.52348e-01
Si    4.04797e+00   9.48521e+00   1.39939e+00  6.57328e-01  -5.35252e-01   1.54874e-01
Si    1.47679e+00   9.51858e+00   4.06267e+00 -7.09450e-01   2.55011e-01  -1.06268e+00
Si    4.12553e+00   6.71575e+00   4.08288e+00 -4.51059e-01   1.78982e-01   1.05115e+00
Si    5.42580e+00   5.38612e+00   4.87279e-02 -8.01624e-02  -1.23862e-02   3.27935e-01
Si    8.17387e+00   8.09709e+00   5.02600e-02  1.45069e-02   5.33116e-01  -8.42398e-01
Si    5.44920e+00   8.04621e+00   2.81369e+00 -9.96195e-01   1.26952e+00  -1.43267e+00
Si    8.10455e+00   5.47810e+00   2.70066e+00  7.58557e-02  -4.56005e-01  -4.26164e-03
Si    6.73583e+00   6.84324e+00   1.35989e+00  3.95403e-01  -1.10906e+00   4.72418e-02
Si    9.50781e+00   9.51171e+00   1.35052e+00  7.25950e-01  -6.80739e-01   3.31067e-01
Si    6.75127e+00   9.41180e+00   4.08259e+00  4.60419e-02   8.72636e-02   9.70022e-01
Si    9.55538e+00   6.73854e+00   4.06106e+00 -2.77997e-01  -4.81375e-02   2.47349e-01
Si    7.60604e-02   7.01641e-02   5.27625e+00  4.36111e-01  -5.17922e-01   1.80005e+00
Si    2.69471e+00   2.79651e+00   5.38920e+00  4.54355e-01  -3.05581e-02   5.34699e-01
Si    1.08220e+01   2.71355e+00   8.17206e+00  1.13106e-01   4.02404e-01  -1.86905e-02
Si    2.62376e+00   2.17526e-01   8.19474e+00  7.17123e-01  -1.56508e+00   1.98195e-01
Si    1.33021e+00   1.46554e+00   6.77978e+00 -3.46056e-01  -8.26341e-02  -9.51260e-01
Si    4.10281e+00   4.09394e+00   6.84555e+00 -7.88243e-02  -5.28861e-01  -7.01106e-01
Si    1.33874e+00   4.11124e+00   9.50408e+00 -2.50362e-01  -7.61271e-01   1.54933e-01
Si    4.09558e+00   1.42545e+00   9.55856e+00  3.40778e-01  -6.31907e-01  -2.73647e-01
Si    5.39880e+00  -2.40497e-02   5.41783e+00  7.10362e-01  -2.93480e-01   6.18343e-01
Si    8.19468e+00   2.68852e+00   5.37305e+00 -1.92717e-01  -3.02009e-01   7.71057e-01
Si    5.49112e+00   2.63085e+00   8.08457e+00  3.16552e-01   1.34444e+00   1.17970e+00
Si    8.15254e+00   3.33670e-02   8.06596e+00  2.47684e-01  -1.90138e+00   1.89128e-01
Si    6.85695e+00   1.29153e+00   6.75325e+00 -9.35056e-01   8.00144e-01  -1.21192e+00
Si    9.50588e+00   4.02659e+00   6.78199e+00 -3.38850e-01   2.01177e-01   3.46061e-01
Si    6.87950e+00   4.11920e+00   9.53018e+00 -1.43353e+00  -4.66373e-01  -1.13325e+00
Si    9.39512e+00   1.35688e+00   9.42255e+00  9.33832e-01   4.62644e-01   7.62621e-01
Si    1.08424e+01   5.40813e+00   5.52606e+00  6.17455e-01   5.06659e-02  -1.43299e+00
Si    2.77181e+00   8.17176e+00   5.39749e+00  3.05974e-01  -3.07707e-01   1.03509e+00
Si    1.08354e+01   8.24846e+00   8.13960e+00  9.34095e-02  -4.90111e-01  -4.26911e-01
Si    2.68875e+00   5.40738e+00   8.14911e+00  2.82354e-01   1.26655e+00   4.13218e-01
Si    1.33504e+00   6.83730e+00   6.78224e+00  5.04105e-01   1.25001e-01   3.59438e-01
Si    4.01726e+00   9.62683e+00   6.88104e+00 -1.33663e-01  -7.63476e-01  -2.85611e-01
Si    1.32275e+00   9.56523e+00   9.51238e+00 -1.67893e-01   1.10255e+00  -1.70586e-01
Si    4.02675e+00   6.79024e+00   9.63947e+00  1.04827e-01  -4.27170e-01  -1.49639e+00
Si    5.49147e+00   5.43012e+00   5.49548e+00 -5.66908e-02  -7.66999e-01  -7.93406e-01
Si    8.17501e+00   8.08564e+00   5.38367e+00  1.52904e-01   6.81223e-01   4.14838e-02
Si    5.37847e+00   8.10203e+00   8.15527e+00 -9.93106e-02   6.10270e-01   3.01225e-01
Si    8.23268e+00   5.47150e+00   8.14438e+00 -7.39335e-01  -4.24907e-02  -3.51179e-01
Si    6.80083e+00   6.84497e+00   6.77080e+00  4.13998e-01  -7.21435e-01   8.27834e-01
Si    9.53247e+00   9.56760e+00   6.63708e+00  4.25911e-02  -3.80543e-02   5.62150e-01
Si    6.84902e+00   9.43934e+00   9.45503e+00 -3.96821e-01   2.70632e-01   2.44210e-01
Si    9.56464e+00   6.79068e+00   9.52046e+00 -4.07203e-01   6.46486e-01  -2.62818e-01
