64
Lattice="10.862 0 0 0 10.862 0 0 0 10.862 " PBC="1 1 1" Properties=species:S:1:pos:R:3:force:R:3 Energy="-267.31551"
Si    4.25565e-02   1.39956e-01   3.43836e-02  9.99522e-02  -9.71949e-01   5.83216e-01
Si    2.90697e+00   2.83855e+00  -1.34440e-01 -1.55003e+00  -1.43167e+00   9.89530e-01
Si    1.07641e+01   2.68662e+00   2.74613e+00  1.28058e+00   6.27195e-01  -7.91749e-02
Si    2.64110e+00   7.12001e-02   2.76988e+00  9.79486e-01  -1.39990e+00  -3.83856e-01
Si    1.47678e+00   1.49764e+00   1.44137e+00 -8.12602e-01   5.67594e-01  -1.86790e+00
Si    4.21646e+00   4.09659e+00   1.19180e+00  5.59353e-01  -1.31093e+00   2.55493e+00
Si    1.23075e+00   4.05786e+00   4.10058e+00  2.45901e-01  -2.70249e-01  -5.46063e-02
Si    3.88830e+00   1.47067e+00   4.11624e+00  7.94288e-01  -1.68599e-01   9.32349e-02
Si    5.48121e+00   1.06951e+01   1.32194e-01  1.40686e-01  -1.60346e-01  -1.65609e+00
Si    8.16165e+00   2.69133e+00   4.42468e-02 -4.76298e-01  -1.37925e-01  -2.73146e-01
Si    5.47526e+00   2.55630e+00   2.77398e+00 -1.16934e+00   1.67292e+00  -1.34425e+00
Si    8.18632e+00   1.10130e+01   2.79947e+00 -3.74627e-02  -1.95084e+00  -4.82638e-01
Si    6.76266e+00   1.26993e+00   1.35296e+00  9.17791e-01   7.54835e-01   2.87276e-01
Si    9.48344e+00   4.05690e+00   1.41165e+00 -9.34413e-02   4.21785e-01  -5.79604e-01
Si    6.85635e+00   3.96665e+00   4.00554e+00  3.58708e-02  -3.90768e-01   1.27793e+00
Si    9.54255e+00   1.44193e+00   4.18886e+00 -4.19233e-02  -1.22265e+00  -5.59964e-02
Si    1.08726e+01   5.42315e+00   1.09020e+01 -6.46236e-01   7.26967e-01  -4.03728e-01
Si    2.62072e+00   8.15056e+00   1.08442e+01  1.51000e+00  -2.20223e-01  -5.46525e-01
Si    1.97932e-01   8.03118e+00   2.73414e+00 -1.90950e+00   7.90914e-02  -1.01991e+00
Si    2.71373e+00   5.18537e+00   2.65013e+00  4.23183e-01   1.32409e+00  -5.78711e-02
Si    1.49103e+00   6.68795e+00   1.29512e+00 -9.50520e-01  -4.00255e-01   1.12245e+00
Si    3.98609e+00   9.46687e+00   1.35372e+00 -3.24836e-01  -4.98017e-03   1.30669e+00
Si    1.42539e+00   9.36619e+00   4.03833e+00  3.85184e-01   1.32214e+00  -5.13846e-02
Si    4.05852e+00   6.63679e+00   3.98821e+00 -4.23547e-01  -5.07271e-01   4.97225e-01
Si    5.51568e+00   5.50030e+00   1.08458e+01  3.89883e-01   2.96670e-01  -1.56708e+00
Si    8.29296e+00   8.23676e+00  -2.95014e-02 -1.36399e+00   6.41296e-02   5.66752e-01
Si    5.34646e+00   8.11173e+00   2.77055e+00  2.27567e-01  -2.48822e-01  -1.98734e+00
Si    8.05933e+00   5.43272e+00   2.67865e+00  1.51526e+00   5.77189e-01   5.51995e-01
Si    6.85272e+00   6.85689e+00   1.31020e+00 -5.79953e-01   7.77577e-01   3.59434e-01
Si    9.59901e+00   9.51138e+00   1.44761e+00  4.65702e-01   8.89413e-01   2.33491e-01
Si    6.65234e+00   9.55089e+00   3.97009e+00  9.72637e-01   1.07166e+00   1.11460e+00
Si    9.46770e+00   6.89052e+00   4.09010e+00  1.73962e-01  -1.90103e+00  -1.33550e+00
Si    1.09932e+01   1.08050e+01   5.30109e+00 -8.76125e-01   7.32568e-01   1.93304e+00
Si    2.65218e+00   2.84772e+00   5.53573e+00 -7.39851e-01  -6.25558e-01   9.33517e-02
Si   -3.19058e-02   2.79352e+00   8.33316e+00 -1.01252e-01  -2.97050e-01  -1.23184e+00
Si    2.75750e+00   2.25837e-02   8.06198e+00  2.89922e-01  -1.50665e+00   1.53177e+00
Si    1.30907e+00   1.38950e+00   6.90956e+00 -1.67238e-01   4.63722e-01  -1.23810e+00
Si    4.04591e+00   4.20614e+00   6.81635e+00  1.84909e-01  -7.72773e-01   5.46986e-01
Si    1.43138e+00   4.21685e+00   9.53407e+00 -6.44447e-01  -1.02300e+00  -2.05242e-01
Si    4.16783e+00   1.20457e+00   9.62743e+00 -3.94089e-02   1.02830e+00  -1.60153e+00
Si    5.33095e+00   1.49056e-01   5.36391e+00  3.23476e-01  -1.38395e+00   1.53052e+00
Si    8.22484e+00   2.70617e+00   5.58968e+00 -2.38918e+00  -5.30902e-01  -5.37871e-01
Si    5.44263e+00   2.80029e+00   8.23775e+00 -1.25829e+00   5.48646e-01   1.05481e+00
Si    8.13914e+00   8.32042e-03   8.15488e+00 -3.01935e-01  -9.98807e-01  -8.42114e-01
Si    6.67287e+00   1.40125e+00   7.02387e+00  1.16171e+00  -5.65964e-01  -3.16361e+00
Si    9.47214e+00   4.09193e+00   6.81285e+00  8.80791e-01  -8.18932e-01   1.63848e+00
Si    6.96747e+00   4.14496e+00   9.46844e+00 -1.22040e+00  -2.02378e-01   8.71888e-01
Si    9.40495e+00   1.28653e+00   9.49692e+00  1.36597e+00   1.43201e+00   1.17196e+00
Si    1.06739e+01   5.34740e+00   5.43725e+00  1.09070e+00   1.54559e+00  -9.25583e-01
Si    2.65220e+00   7.97240e+00   5.34367e+00  8.69113e-01  -1.30136e-01   9.11553e-01
Si    1.08120e+01   8.23262e+00   8.11083e+00  1.09756e+00  -2.90035e-01  -1.76414e-01
Si    2.56884e+00   5.57256e+00   8.07555e+00  1.37745e+00  -9.13557e-01   3.86394e-01
Si    1.18364e+00   6.74400e+00   6.73901e+00 -2.62163e-01   9.22521e-01  -5.20034e-01
Si    4.07971e+00   9.32756e+00   6.72869e+00 -8.06166e-01   1.85726e+00  -1.23325e+00
Si    1.31305e+00   9.51087e+00   9.53387e+00  2.60980e-01   1.31410e+00  -9.87663e-01
Si    4.01177e+00   6.77822e+00   9.45605e+00  3.71653e-01   5.44208e-01   4.30981e-01
Si    5.47605e+00   5.30991e+00   5.34304e+00 -1.53018e-01   5.90889e-01   1.51929e-01
Si    8.05408e+00   8.17127e+00   5.30911e+00 -2.80846e-01   7.26531e-01   1.75368e+00
Si    5.41771e+00   8.02705e+00   8.02826e+00  4.71638e-01   1.90995e-01   1.34344e+00
Si    8.25708e+00   5.49248e+00   8.10578e+00 -2.88417e-01   6.24325e-01   7.35508e-01
Si    6.78939e+00   6.67012e+00   6.76146e+00  3.65366e-01   7.46200e-01  -1.32955e+00
Si    9.53371e+00   9.52370e+00   6.73711e+00 -1.10213e+00   5.54636e-01  -1.12824e+00
Si    6.80952e+00   9.43660e+00   9.40458e+00 -4.17571e-01  -1.76604e-01   8.98273e-01
Si    9.56541e+00   6.93846e+00   9.48241e+00  1.99591e-01  -2.06106e+00   3.44354e-01
