64
Lattice="10.862 0 0 0 10.862 0 0 0 10.862 " PBC="1 1 1" Properties=species:S:1:pos:R:3:force:R:3 Energy="-266.44536"
Si    4.16120e-03  -4.21390e-02   5.48125e-03  9.97215e-01  -1.75317e-01   2.70940e-01
Si    2.79848e+00   2.74658e+00   2.51326e-02 -1.50571e+00   4.98900e-01   1.38118e+00
Si    1.08957e+01   2.56806e+00   2.75475e+00 -7.83202e-01   5.56373e-01  -8.47228e-01
Si    2.70061e+00  -1.62260e-01   2.69584e+00  1.38909e+00   1.49863e+00   5.45536e-01
Si    1.39416e+00   1.28285e+00   1.42729e+00  5.53562e-01   1.45398e-02  -1.46041e+00
Si    4.09308e+00   4.12074e+00   1.50478e+00 -9.58794e-01   1.10408e+00  -2.91544e+00
Si    1.25416e+00   4.01206e+00   3.97802e+00  1.04199e+00   8.65493e-01   1.27449e+00
Si    4.16558e+00   1.41584e+00   4.05764e+00  4.57628e-01  -2.63529e+00  -3.71349e-01
Si    5.56128e+00   1.09950e+01  -9.24088e-02 -7.76358e-01  -7.39767e-01   1.51122e-01
Si    8.06473e+00   2.79800e+00   4.64628e-02  1.68173e+00   3.16347e-01   7.54825e-02
Si    5.43872e+00   2.80055e+00   2.58459e+00  1.09911e+00  -1.54560e+00   2.45152e+00
Si    8.24117e+00   1.07213e+01   2.68970e+00 -2.59788e-01   7.63973e-01  -2.63185e-01
Si    6.85350e+00   1.38862e+00   1.38429e+00  1.81478e-01  -6.81307e-01   1.92474e-01
Si    9.66761e+00   4.06127e+00   1.36849e+00 -1.67746e+00  -3.21224e-01   5.68444e-01
Si    6.68300e+00   4.11589e+00   4.08795e+00  1.20065e+00  -3.42841e-01  -5.21274e-01
Si    9.49036e+00   1.33950e+00   4.12022e+00 -5.04935e-01  -5.81153e-01  -1.35457e-01
Si    1.09093e+01   5.55128e+00   1.09675e+01  3.25298e-01  -1.34182e+00  -1.58167e+00
Si    2.87629e+00   8.07160e+00   1.07471e+01 -1.87208e+00   8.08016e-01   1.63339e+00
Si   -9.86993e-02   7.97982e+00   2.69904e+00  1.48212e+00   9.66528e-01   5.87724e-01
Si    2.76208e+00   5.44891e+00   2.81863e+00 -9.32132e-01  -7.02472e-01   8.22479e-02
Si    1.44790e+00   6.75887e+00   1.47760e+00  6.72657e-01   1.13281e+00  -1.42010e+00
Si    4.22255e+00   9.52431e+00   1.28376e+00 -4.59148e-01  -4.09721e-01  -3.64466e-01
Si    1.18272e+00   9.53506e+00   4.02313e+00  3.74723e-01  -1.52617e+00   8.04229e-02
Si    4.01176e+00   6.86918e+00   4.09627e+00 -1.08067e-02  -3.14501e-01   3.34742e-01
Si    5.30847e+00   5.54305e+00   1.08344e+01  1.06720e-01  -4.02552e-01   8.23431e-01
Si    8.15759e+00   8.07557e+00  -1.87167e-01  1.11596e+00  -8.75698e-01   1.19435e+00
Si    5.41700e+00   8.06606e+00   2.72636e+00  7.86412e-01   8.01432e-01  -6.92710e-01
Si    8.19612e+00   5.40798e+00   2.75099e+00 -8.43456e-01  -9.27356e-01  -9.14059e-01
Si    6.84418e+00   6.75929e+00   1.33235e+00 -3.49217e-01   2.68166e-01  -2.26061e-01
Si    9.61750e+00   9.32222e+00   1.27003e+00 -1.86387e+00   7.15418e-01  -2.82412e-01
Si    6.79889e+00   9.43655e+00   4.05269e+00  5.29095e-01  -1.48163e-01   8.44820e-01
Si    9.45161e+00   6.72504e+00   4.08157e+00  2.09601e-01   3.36328e-01   1.16054e+00
Si    1.08405e+01   1.08690e+01   5.48787e+00  1.04067e-01   4.54108e-01   4.57135e-01
Si    2.71748e+00   2.69096e+00   5.27095e+00 -1.00013e+00   3.25724e-01   9.99359e-01
Si   -3.26279e-02   2.75048e+00   8.27511e+00  5.31853e-01   5.00894e-01  -1.06228e+00
Si    2.60087e+00   1.27122e-01   8.17390e+00 -8.92795e-02   1.45640e-01   7.87201e-01
Si    1.33040e+00   1.48001e+00   6.80114e+00 -4.46575e-01  -2.51343e-01  -4.88130e-01
Si    4.00081e+00   4.04326e+00   6.65162e+00  3.88362e-01  -1.85127e-01   1.14480e+00
Si    1.37317e+00   4.10271e+00   9.51622e+00 -2.58635e-01  -1.64808e-01   1.70721e+00
Si    4.05004e+00   1.50907e+00   9.48173e+00  3.97099e-01  -1.87014e+00   2.96471e-01
Si    5.54661e+00  -1.63507e-01   5.65849e+00 -6.90438e-01   1.96198e+00  -2.46892e+00
Si    8.13084e+00   2.75691e+00   5.44165e+00  6.24668e-01   9.16376e-01  -2.74860e-01
Si    5.36637e+00   2.88187e+00   8.27043e+00  1.00877e+00  -8.85929e-01  -2.80893e+00
Si    8.29900e+00   7.68820e-02   8.23839e+00 -6.37118e-01  -1.58147e-01  -7.13713e-01
Si    6.87922e+00   1.41726e+00   6.78530e+00 -1.08028e+00  -8.49661e-02   2.44263e+00
Si    9.52967e+00   4.14909e+00   6.88525e+00 -1.44439e+00  -1.80866e+00  -2.91318e-01
Si    6.70709e+00   4.18480e+00   9.59919e+00  7.44799e-01   4.35627e-01  -7.06071e-01
Si    9.56343e+00   1.43767e+00   9.64294e+00 -9.89951e-01  -1.94143e-01   1.06802e-01
Si    1.07514e+01   5.33579e+00   5.43728e+00  1.20011e+00   3.54831e-01  -1.07182e+00
Si    2.54432e+00   8.13002e+00   5.39416e+00 -1.46531e-01   5.27397e-01   4.62744e-01
Si    1.09491e+01   7.96986e+00   8.17472e+00  8.43885e-02   8.27403e-01  -9.73483e-01
Si    2.69063e+00   5.30396e+00   8.11256e+00 -5.04434e-01  -8.24530e-02  -1.37857e+00
Si    1.31265e+00   6.59551e+00   6.76995e+00  3.85641e-01   9.41396e-01  -5.22584e-01
Si    3.78327e+00   9.68946e+00   6.74322e+00  1.10405e+00  -1.97775e+00   2.10794e-01
Si    1.33635e+00   9.41450e+00   9.46986e+00  9.08248e-01   6.59369e-01   7.18226e-01
Si    3.95338e+00   6.71925e+00   9.29032e+00  2.45442e+00   1.26903e+00   4.64498e-01
Si    5.31133e+00   5.44621e+00   5.38404e+00  9.79107e-01   1.24429e+00   8.66982e-01
Si    8.27455e+00   8.19121e+00   5.51203e+00 -1.06168e+00  -1.98306e-01  -6.15065e-01
Si    5.35312e+00   8.35154e+00   8.06671e+00 -9.54226e-01  -7.20994e-01  -1.10018e-01
Si    8.07225e+00   5.48171e+00   8.07573e+00 -9.71816e-01  -6.25395e-01   4.35102e-01
Si    6.72422e+00   6.92989e+00   6.78541e+00 -2.69087e-01  -8.23430e-01  -8.27336e-01
Si    9.63867e+00   9.46396e+00   6.94526e+00 -3.69943e-01   4.19328e-01  -5.17450e-01
Si    6.87999e+00   9.49755e+00   9.45483e+00 -8.73596e-01   1.34684e+00  -4.00618e-01
Si    9.55737e+00   6.64839e+00   9.31974e+00 -5.35568e-01   7.25278e-01   2.47418e+00
