64
Lattice="10.862 0 0 0 10.862 0 0 0 10.862 " PBC="1 1 1" Properties=species:S:1:pos:R:3:force:R:3 Energy="-267.10181"
Si   -5.31646e-02  -4.82361e-02  -3.58137e-03  9.13958e-01   5.90582e-01   8.28828e-01
Si    2.79023e+00   2.71337e+00   5.01001e-02 -3.29456e-01  -7.50049e-02   2.65725e-01
Si    1.08740e+01   2.80470e+00   2.87243e+00 -4.68242e-02   1.78314e-02  -1.82160e+00
Si    2.56226e+00  -1.06293e-01   2.66805e+00  2.23078e+00   3.70506e-01   1.40820e+00
Si    1.35311e+00   1.36704e+00   1.48918e+00 -1.17037e+00   6.69720e-01  -1.78802e+00
Si    4.21278e+00   4.12209e+00   1.31763e+00 -8.56916e-01  -1.42966e+00   1.52504e+00
Si    1.39208e+00   4.21477e+00   4.09381e+00  7.72721e-01  -1.09442e+00  -7.85319e-02
Si    4.08039e+00   1.23516e+00   4.09021e+00 -1.19970e+00   5.08004e-01  -1.84881e+00
Si    5.39988e+00   1.08315e+01  -1.67024e-02  4.40843e-01   1.06365e+00  -9.20307e-01
Si    8.27615e+00   2.65815e+00  -1.43273e-01 -3.15000e-01  -5.34088e-01   5.41073e-01
Si    5.53962e+00   2.56211e+00   2.67966e+00 -1.43220e+00   6.40583e-01  -3.02854e-01
Si    8.09742e+00   1.09869e+01   2.72395e+00 -4.28315e-01  -6.88364e-01   3.82802e-02
Si    6.83687e+00   1.32444e+00   1.16424e+00  3.14129e-01   3.91397e-01   9.06641e-01
Si    9.55224e+00   4.00993e+00   1.24532e+00  3.77371e-01   1.22626e+00   1.16361e+00
Si    6.67665e+00   4.03407e+00   4.07346e+00 -2.25153e-01   6.88474e-01   7.40158e-01
Si    9.41211e+00   1.50044e+00   4.07701e+00 -2.96372e-01  -3.30851e-01   2.08437e+00
Si    1.09838e+01   5.50112e+00   1.07939e+01 -2.44741e+00  -2.66622e-01   4.48962e-01
Si    2.84019e+00   8.12570e+00   1.07298e+01 -1.19858e+00   4.87742e-02   1.51443e+00
Si    1.62779e-02   8.14130e+00   2.81266e+00 -3.51399e-01  -2.48396e-01  -7.95278e-01
Si    2.80261e+00   5.50859e+00   2.72547e+00 -7.29064e-01  -7.30047e-01  -9.64145e-01
Si    1.35363e+00   6.79309e+00   1.33508e+00  1.41749e+00   1.23145e+00   3.67944e-01
Si    4.08184e+00   9.55422e+00   1.33534e+00 -4.25834e-01  -1.89738e+00   4.12445e-01
Si    1.36573e+00   9.47398e+00   4.17509e+00 -1.08535e+00   5.11137e-01  -5.70632e-02
Si    3.93714e+00   6.85016e+00   4.16757e+00  1.00031e+00  -4.73439e-01   9.53207e-02
Si    5.53449e+00   5.27343e+00   1.07689e+01  1.21891e+00   9.19799e-01  -4.48718e-01
Si    8.08563e+00   8.36157e+00   6.67355e-02 -3.33029e-01  -1.63269e+00   8.88529e-01
Si    5.35453e+00   7.97385e+00   2.71959e+00  1.23011e-01   1.71872e+00  -6.19233e-01
Si    8.06994e+00   5.34309e+00   2.73093e+00  1.55170e+00  -3.74420e-01  -4.60122e-01
Si    6.82255e+00   6.70277e+00   1.35385e+00 -6.21097e-01   6.92211e-01  -8.12845e-01
Si    9.44891e+00   9.54138e+00   1.49821e+00  9.49329e-01   2.84915e-01  -2.85787e-01
Si    6.64084e+00   9.54058e+00   3.98497e+00  8.64762e-01  -5.75734e-01   5.69764e-02
Si    9.48016e+00   6.73556e+00   4.07363e+00 -2.19469e-01   1.34083e-01   6.46322e-01
Si    1.08143e+01   1.08895e+01   5.47760e+00  5.81040e-02   6.59079e-01  -1.46405e+00
Si    2.67347e+00   2.62991e+00   5.34580e+00  4.98419e-01   1.35858e+00  -1.00708e-01
Si   -2.69990e-02   2.89041e+00   8.18822e+00  1.09080e+00  -1.78253e+00  -3.10681e-01
Si    2.84390e+00   3.68095e-02   8.14271e+00 -1.95063e+00  -3.90987e-02  -3.30996e-01
Si    1.32751e+00   1.42506e+00   6.74335e+00 -1.01476e-02  -4.37933e-01   1.76583e+00
Si    4.04693e+00   4.03157e+00   6.70247e+00  3.95780e-01  -1.53477e+00   5.31555e-01
Si    1.43942e+00   4.09811e+00   9.56289e+00  1.10604e+00   4.35712e-01  -1.27027e+00
Si    4.15154e+00   1.42790e+00   9.46260e+00  2.71205e-01  -2.99411e-01   1.99125e-01
Si    5.30408e+00  -9.35784e-02   5.42600e+00  7.93167e-01  -8.11528e-01   9.05736e-01
Si    7.93547e+00   2.82259e+00   5.61771e+00  1.77672e+00  -9.55035e-01  -1.12034e+00
Si    5.57901e+00   2.59969e+00   7.95249e+00 -1.75922e+00   1.36003e+00   1.29649e+00
Si    8.17165e+00  -6.60121e-02   8.15557e+00  1.31063e+00   3.65718e-01  -1.73284e+00
Si    6.77356e+00   1.13766e+00   6.78441e+00  3.22099e-01   1.06385e-01  -1.11247e+00
Si    9.48707e+00   4.16568e+00   6.86847e+00 -5.73614e-01   9.62540e-01  -9.35152e-01
Si    6.94543e+00   3.90504e+00   9.35588e+00 -8.52381e-01   1.72357e+00  -3.70558e-01
Si    9.56026e+00   1.29972e+00   9.38569e+00  4.69990e-01   3.23037e-01   4.65906e-01
Si    1.09704e+01   5.47387e+00   5.49300e+00 -1.45273e+00   2.18256e-01   2.71863e-01
Si    2.65929e+00   8.17187e+00   5.54862e+00  8.69976e-02  -4.43216e-01  -4.74846e-02
Si    1.07335e+01   8.07206e+00   8.14546e+00  1.09411e+00   6.37093e-01   4.03271e-01
Si    2.90702e+00   5.46199e+00   8.08888e+00 -1.39052e+00  -1.23449e+00   1.36889e+00
Si    1.44711e+00   6.76382e+00   6.90818e+00 -1.17340e+00   5.12451e-01  -3.21672e-01
Si    4.07969e+00   9.35951e+00   6.88637e+00  3.20625e-01   1.48131e+00  -1.13643e-01
Si    1.36080e+00   9.48978e+00   9.46798e+00 -2.63476e-02  -1.91608e-02  -4.37727e-01
Si    4.21280e+00   6.73207e+00   9.48594e+00  2.56092e-01  -1.57936e-02   4.80163e-01
Si    5.29490e+00   5.45631e+00   5.48958e+00  6.10204e-01  -6.26499e-02  -1.62009e+00
Si    8.05594e+00   8.19530e+00   5.38547e+00 -4.70404e-01  -8.35202e-01  -5.34276e-01
Si    5.51304e+00   8.22313e+00   8.31948e+00 -4.10756e-01  -6.77857e-01  -1.31778e+00
Si    8.07477e+00   5.64565e+00   8.09474e+00  2.22248e-01  -1.77797e+00   7.13451e-01
Si    6.60697e+00   6.84662e+00   6.78884e+00  1.19373e+00   9.06167e-01  -2.91404e-01
Si    9.50808e+00   9.45468e+00   6.67931e+00 -7.62407e-01   7.20709e-02   1.49006e+00
Si    6.86515e+00   9.64347e+00   9.48940e+00 -1.24485e+00  -9.41220e-01   1.35656e+00
Si    9.31002e+00   6.89841e+00   9.63219e+00  1.73667e+00  -6.11127e-01  -5.46275e-01
