64
Lattice="10.862 0 0 0 10.862 0 0 0 10.862 " PBC="1 1 1" Properties=species:S:1:pos:R:3:force:R:3 Energy="-266.86218"
Si    1.44978e-01   7.77510e-02   3.00533e-02 -1.14056e-01   1.08063e+00  -1.11138e+00
Si    2.86741e+00   2.78784e+00  -1.22704e-01 -1.68654e+00  -7.55028e-01   1.44264e+00
Si    1.08317e+01   2.68646e+00   2.66808e+00 -1.33353e+00   6.45418e-01   2.20788e+00
Si    2.68994e+00   1.52856e-01   2.80305e+00 -2.88275e-01  -1.20621e+00  -2.91039e-01
Si    1.38796e+00   1.48723e+00   1.42460e+00  1.52324e+00  -3.00984e-02  -1.86094e+00
Si    4.20665e+00   3.97780e+00   1.31625e+00  1.21214e-01   5.47729e-01   5.66081e-02
Si    1.20887e+00   4.19583e+00   4.06317e+00  6.78965e-01  -5.10194e-01   7.07464e-02
Si    3.98352e+00   1.46591e+00   4.22879e+00  1.62162e+00  -5.90710e-01  -1.04226e+00
Si    5.41845e+00   1.07110e+01   6.02575e-02  3.66153e-01   9.46606e-01  -1.59738e+00
Si    8.15020e+00   2.68541e+00   6.07682e-02  2.84527e-01   1.80821e-02  -6.54638e-01
Si    5.50527e+00   2.63521e+00   2.74092e+00 -6.22670e-01  -8.07102e-01  -2.83787e-01
Si    8.05635e+00   1.07562e+01   2.81604e+00  1.89486e+00   1.21618e+00  -9.56997e-01
Si    6.84272e+00   1.20890e+00   1.29063e+00 -6.45163e-01   6.31885e-01   1.62316e+00
Si    9.54375e+00   4.12099e+00   1.33919e+00 -1.45780e-02  -1.03036e+00  -5.60493e-01
Si    6.76773e+00   4.03009e+00   4.07215e+00  9.98786e-02  -2.33506e-01  -7.11148e-01
Si    9.43481e+00   1.28245e+00   4.23248e+00  2.65700e-02   9.48146e-01  -1.65376e+00
Si    1.08724e+01   5.49497e+00   1.08480e+01 -9.76949e-03  -4.97291e-01  -4.89446e-01
Si    2.65470e+00   8.10151e+00   1.07540e+01 -3.09223e-01   1.85716e-01   3.08442e-01
Si    1.50773e-01   8.09091e+00   2.65297e+00 -1.32741e+00   8.13989e-01   1.72381e+00
Si    2.73250e+00   5.29737e+00   2.55311e+00 -3.52439e-02  -2.43853e-02   1.38752e+00
Si    1.42867e+00   6.74757e+00   1.32088e+00  6.20785e-02  -6.25971e-02  -6.45641e-01
Si    3.82620e+00   9.54226e+00   1.21274e+00  1.10260e+00  -4.21940e-01   2.54824e+00
Si    1.37157e+00   9.54446e+00   4.17252e+00  4.09157e-01  -3.32921e-01  -1.41272e+00
Si    4.13914e+00   6.50021e+00   4.03435e+00 -4.84806e-01   1.01258e+00  -6.91019e-01
Si    5.53398e+00   5.43402e+00   1.08910e+01 -2.17981e-01   6.98699e-01  -8.19973e-01
Si    8.32463e+00   8.37505e+00   9.33889e-02 -2.12790e-01  -8.47889e-01  -2.25957e-02
Si    5.25184e+00   8.10606e+00   2.67501e+00 -1.79943e-01   5.81673e-01  -5.70056e-01
Si    8.11394e+00   5.30999e+00   2.64598e+00 -4.95124e-01   1.85951e+00   5.28921e-01
Si    6.85707e+00   6.96743e+00   1.36575e+00  1.90835e-02  -1.20570e+00  -6.75989e-02
Si    9.79247e+00   9.71769e+00   1.42606e+00 -2.07448e+00  -1.83000e+00   1.12947e+00
Si    6.54882e+00   9.56257e+00   4.00074e+00 -5.11252e-01  -7.78166e-01   8.23710e-01
Si    9.36058e+00   6.79171e+00   4.01483e+00  9.46292e-01   6.14349e-01  -1.00041e+00
Si    1.09177e+01   1.09117e+01   5.53903e+00 -9.08655e-01  -1.12454e+00   2.96468e-01
Si    2.71915e+00   2.88335e+00   5.45652e+00 -1.83249e+00  -3.61297e-01   1.03332e+00
Si    3.07554e-02   2.61638e+00   8.18608e+00 -3.08643e-01  -7.93293e-02   2.09819e-01
Si    2.82701e+00  -1.72055e-01   8.17263e+00  5.68647e-01   1.30062e+00   3.83367e-02
Si    1.47814e+00   1.26515e+00   6.90462e+00  2.46242e-01   1.37602e+00  -7.42176e-01
Si    4.03500e+00   4.14228e+00   6.90928e+00 -5.39114e-01   1.26345e-01   9.84414e-02
Si    1.37114e+00   4.07858e+00   9.46826e+00 -6.65031e-01   1.82422e-01   6.10554e-01
Si    4.16550e+00   1.35912e+00   9.53369e+00 -2.56076e-01  -1.67524e+00  -4.33542e-01
Si    5.31177e+00  -9.28338e-03   5.56297e+00  7.87070e-01   1.22903e+00  -2.33896e+00
Si    7.94039e+00   2.67144e+00   5.44345e+00  1.88010e+00  -5.17732e-01   1.21930e+00
Si    5.39167e+00   2.75740e+00   8.18568e+00  1.90340e-01  -6.76308e-01  -3.18897e-01
Si    8.07558e+00   3.77225e-02   8.08104e+00  2.63567e-01  -1.00777e+00   1.06855e+00
Si    6.65284e+00   1.28427e+00   6.87307e+00 -5.95926e-02   1.52612e+00  -6.52295e-01
Si    9.55264e+00   3.95727e+00   6.77390e+00 -9.71204e-01   7.19458e-01  -3.30593e-02
Si    6.82369e+00   3.98483e+00   9.47533e+00  9.13974e-01   1.80094e+00   3.76080e-01
Si    9.40076e+00   1.26728e+00   9.53015e+00  1.58267e+00   7.78289e-01   1.53454e-01
Si    1.07182e+01   5.61116e+00   5.49493e+00  9.89522e-01  -1.06080e+00  -1.79412e-01
Si    2.90469e+00   8.10931e+00   5.23995e+00 -1.10704e+00  -4.67957e-01   1.38244e+00
Si    1.08527e+01   8.27108e+00   8.17580e+00 -6.73670e-01  -8.65684e-01  -1.07756e+00
Si    2.59946e+00   5.56688e+00   8.21629e+00  1.21830e+00  -9.28466e-01  -8.51138e-01
Si    1.41187e+00   6.91517e+00   6.78796e+00 -7.74460e-01   6.05307e-01  -8.26780e-01
Si    4.16823e+00   9.41929e+00   6.70868e+00 -1.55979e+00  -1.09078e+00   1.18853e+00
Si    1.35587e+00   9.52090e+00   9.48766e+00  1.87391e-01   1.41417e-01   4.86354e-01
Si    4.05981e+00   6.83313e+00   9.47261e+00  1.41319e+00  -7.82836e-01   2.72276e-01
Si    5.46151e+00   5.24820e+00   5.48097e+00 -1.64346e-01   1.15302e+00   2.27969e-03
Si    7.95537e+00   8.19046e+00   5.25098e+00  6.23492e-01  -2.36386e-02   1.14968e+00
Si    5.48985e+00   8.05760e+00   8.00784e+00  7.87551e-02   7.77001e-01   1.89584e+00
Si    8.26776e+00   5.50194e+00   8.13393e+00 -1.27788e+00  -1.44980e+00  -2.31910e-01
Si    6.78703e+00   6.73284e+00   6.70640e+00  8.56166e-01  -4.69115e-01  -2.80305e-01
Si    9.35738e+00   9.50215e+00   6.76060e+00  9.43453e-01  -1.83161e-02  -7.51589e-01
Si    6.87637e+00   9.46684e+00   9.49590e+00 -1.18901e+00  -8.09539e-02  -5.41699e-01
Si    9.48762e+00   6.89096e+00   9.52725e+00  9.50725e-01   3.27476e-01   3.69716e-01
