64
Lattice="10.862 0 0 0 10.862 0 0 0 10.862 " PBC="1 1 1" Properties=species:S:1:pos:R:3:force:R:3 Energy="-268.22969"
Si   -1.40344e-01  -2.52550e-03  -1.01426e-01  8.21066e-01  -5.42102e-01   1.87709e+00
Si    2.65432e+00   2.82237e+00   2.85469e-02 -4.00101e-01  -1.33221e+00  -1.22245e+00
Si    1.11080e+01   2.52681e+00   2.72081e+00 -1.06837e+00   4.99899e-01   1.50344e-01
Si    2.95801e+00  -1.91769e-01   2.61120e+00 -2.19524e+00   3.90269e-01   1.05594e+00
Si    1.50486e+00   1.15515e+00   1.30524e+00 -4.42283e-01   3.39139e-01  -6.89140e-01
Si    3.91890e+00   4.15609e+00   1.33803e+00  1.54569e+00   2.73311e-01  -6.48057e-01
Si    1.40321e+00   4.00070e+00   4.10911e+00 -1.22677e-03  -3.42744e-01  -5.12243e-01
Si    4.07918e+00   1.30117e+00   4.01657e+00 -5.35196e-01   1.19655e-01   6.56018e-01
Si    5.49540e+00   1.09328e+01   5.53866e-03 -4.68460e-01  -4.67875e-03  -1.33325e-01
Si    8.23365e+00   2.83071e+00  -2.57984e-02  2.11829e-01  -8.83752e-01  -1.18098e-01
Si    5.18833e+00   2.80369e+00   2.69117e+00  2.01540e+00   4.84094e-01   4.96325e-01
Si    8.07138e+00   1.09639e+01   2.66735e+00  4.72749e-01   5.09771e-01   7.64367e-01
Si    6.71301e+00   1.59444e+00   1.37099e+00  6.33155e-01  -8.90396e-01  -4.12154e-01
Si    9.72266e+00   4.00301e+00   1.44946e+00 -1.28551e+00   5.14039e-01  -3.40799e-01
Si    6.69077e+00   4.12852e+00   4.11560e+00 -4.06927e-01   2.95164e-01  -3.84525e-01
Si    9.60372e+00   1.34429e+00   4.10808e+00 -5.68289e-01  -3.34096e-01  -5.12326e-01
Si    1.08434e+01   5.51747e+00   1.08750e+01 -8.65882e-01  -1.00978e+00  -1.87760e-01
Si    2.72879e+00   8.10220e+00   1.08353e+01 -5.55148e-01   3.25791e-01   6.10870e-01
Si   -1.58336e-01   8.08679e+00   2.79306e+00  9.27965e-01  -5.42554e-01  -9.93883e-01
Si    2.72346e+00   5.33848e+00   2.79775e+00 -1.13567e+00   1.88419e+00  -3.19192e-01
Si    1.31744e+00   6.72769e+00   1.36844e+00  7.44670e-01   1.26754e+00   1.25206e+00
Si    4.27983e+00   9.34546e+00   1.33222e+00 -3.92667e-01   4.62147e-01  -1.41724e+00
Si    1.25018e+00   9.48606e+00   3.97826e+00  1.88731e+00  -1.30558e-01  -3.85746e-02
Si    4.02628e+00   6.83210e+00   4.06115e+00  8.58307e-01  -1.26846e-01  -3.65149e-01
Si    5.33921e+00   5.55396e+00   1.08331e+01  9.34776e-01  -2.26341e+00   1.29797e+00
Si    8.06421e+00   8.07101e+00  -6.97330e-02  1.94610e-01  -6.26595e-03   4.64298e-01
Si    5.57627e+00   8.09096e+00   2.72297e+00 -3.62214e-01  -6.72295e-01   7.55986e-01
Si    8.13697e+00   5.42336e+00   2.69604e+00  2.13442e+00  -1.87363e+00   2.06048e+00
Si    6.83209e+00   6.64326e+00   1.41621e+00 -8.63778e-01   2.06003e+00  -1.81620e+00
Si    9.35084e+00   9.47323e+00   1.41721e+00  5.00686e-01   5.56691e-02  -1.48648e+00
Si    6.88712e+00   9.49157e+00   4.05806e+00  1.65380e-01  -1.63294e-01   3.69322e-01
Si    9.63390e+00   6.61319e+00   4.27651e+00 -1.73938e+00   6.71986e-01  -1.36148e+00
Si    1.09301e+01   1.07898e+01   5.47593e+00 -1.43358e-01   1.13725e+00  -4.49795e-01
Si    2.68940e+00   2.70081e+00   5.42088e+00  9.01844e-01  -1.15286e+00  -1.66079e-01
Si   -1.51619e-02   2.75975e+00   8.14578e+00  7.93713e-01  -2.24606e-01  -7.49125e-01
Si    2.68010e+00   6.68575e-02   8.32332e+00 -7.09777e-01   9.83778e-01  -1.38229e+00
Si    1.36273e+00   1.38731e+00   6.78894e+00  3.15416e-02  -4.05661e-01   8.74301e-01
Si    3.96589e+00   4.05289e+00   6.78286e+00  1.13811e+00   5.83729e-01  -5.91115e-01
Si    1.22270e+00   4.16047e+00   9.51241e+00  1.38603e+00  -6.28340e-01   9.11988e-02
Si    4.10427e+00   1.45548e+00   9.48467e+00 -3.94114e-02   3.46628e-01   1.13508e+00
Si    5.47584e+00  -2.27092e-02   5.35749e+00 -1.72495e-01   5.81519e-01   1.56021e+00
Si    8.22375e+00   2.81761e+00   5.37435e+00 -3.72236e-01  -6.85074e-01   1.51503e-01
Si    5.41362e+00   2.80388e+00   8.06255e+00  8.21930e-01  -4.29774e-01   8.01745e-01
Si    8.20160e+00  -5.82238e-02   8.19911e+00 -9.96366e-01   1.25892e-01  -1.76809e+00
Si    6.89310e+00   1.44112e+00   6.77803e+00 -5.80607e-01  -1.03373e+00  -3.28054e-01
Si    9.50637e+00   4.07142e+00   6.84794e+00 -3.19005e-01   5.77539e-01  -2.91071e-01
Si    6.77128e+00   4.15389e+00   9.53128e+00 -7.78077e-01  -2.12213e-01  -1.58576e-01
Si    9.55344e+00   1.35261e+00   9.32269e+00 -1.26707e+00   9.86261e-01   2.51321e+00
Si    1.10155e+01   5.27371e+00   5.53209e+00 -7.76982e-01   4.52968e-01   1.25220e-02
Si    2.66438e+00   8.14050e+00   5.36214e+00  8.74963e-03   1.87868e+00  -2.62988e-01
Si    1.08767e+01   8.08727e+00   8.12641e+00  5.63629e-01   1.18398e-01   2.31770e-01
Si    2.74460e+00   5.36684e+00   8.16920e+00 -1.98943e+00   9.86690e-01  -6.54844e-01
Si    1.40122e+00   6.83804e+00   6.67170e+00  1.16905e-01  -1.51815e+00   2.33110e+00
Si    3.84197e+00   9.66710e+00   6.82266e+00  2.28698e+00  -1.58555e+00  -1.03628e+00
Si    1.30741e+00   9.54974e+00   9.51606e+00 -1.71829e-02  -1.51975e+00   3.91904e-01
Si    4.01621e+00   6.71512e+00   9.49053e+00 -6.71267e-02   1.70523e+00  -7.79031e-01
Si    5.33192e+00   5.58613e+00   5.53815e+00  6.22860e-01  -1.12273e+00  -4.94865e-01
Si    8.29571e+00   8.17016e+00   5.50567e+00 -7.20757e-01  -4.00502e-01  -6.70940e-01
Si    5.30628e+00   8.16676e+00   8.13459e+00 -7.60207e-01   6.21839e-01  -4.19989e-01
Si    8.06573e+00   5.45389e+00   8.14020e+00  1.68046e-01  -5.52472e-01  -8.53043e-01
Si    6.79893e+00   6.92542e+00   6.84168e+00 -3.39540e-01  -4.57980e-01  -4.32087e-01
Si    9.62452e+00   9.49931e+00   6.82588e+00 -8.80367e-01   8.22159e-02   4.75021e-01
Si    6.69143e+00   9.48069e+00   9.44407e+00  8.19956e-01   2.78148e-01   7.52699e-01
Si    9.44875e+00   6.69937e+00   9.39725e+00  5.08024e-01   1.44855e+00   1.31401e+00
