64
Lattice="10.862 0 0 0 10.862 0 0 0 10.862 " PBC="1 1 1" Properties=species:S:1:pos:R:3:force:R:3 Energy="-268.16353"
Si    9.38254e-02   4.61384e-02  -9.17038e-02 -3.16240e-01  -1.34450e+00   6.33461e-01
Si    2.74402e+00   2.74753e+00  -8.79053e-02 -1.18961e+00   3.03775e-01   1.16945e+00
Si    1.09074e+01   2.70317e+00   2.70153e+00 -1.04470e+00   7.98243e-01   6.75791e-01
Si    2.81637e+00   3.96439e-02   2.76122e+00 -1.16511e+00  -4.92286e-01  -1.08537e+00
Si    1.28089e+00   1.35310e+00   1.31366e+00  2.70540e+00   4.14173e-01   3.15810e-01
Si    4.13450e+00   3.96360e+00   1.40933e+00  7.15428e-02   8.40251e-01  -1.76626e+00
Si    1.35330e+00   4.02088e+00   4.21423e+00 -1.55410e-01   6.15413e-01  -2.73841e-01
Si    4.10911e+00   1.43658e+00   4.08504e+00 -7.46050e-01  -2.88201e-01   5.86826e-01
Si    5.46122e+00   1.08964e+01   1.40895e-01 -1.65968e+00  -2.12581e-01   1.39563e+00
Si    8.10352e+00   2.59631e+00   1.04545e-01  1.81379e+00   1.43745e+00  -7.57035e-01
Si    5.45256e+00   2.74190e+00   2.79062e+00  8.12874e-01   2.54971e-01   3.15949e-01
Si    8.16403e+00   1.08622e+01   2.67549e+00  3.44248e-01  -2.99291e-02   5.21015e-01
Si    6.79507e+00   1.39727e+00   1.48898e+00 -6.20356e-01  -6.87201e-01  -2.79577e-01
Si    9.52171e+00   4.13946e+00   1.35002e+00  4.17178e-01  -4.86154e-01  -9.49373e-01
Si    6.84464e+00   4.14249e+00   4.08652e+00 -1.39905e+00  -3.83952e-02   1.18679e+00
Si    9.43636e+00   1.40395e+00   4.07454e+00  6.78136e-01  -3.57317e-01   8.90216e-02
Si    1.07392e+01   5.56343e+00   1.05605e+01  1.94443e+00  -1.63642e+00   2.49949e+00
Si    2.75478e+00   8.09738e+00   1.07625e+01 -3.58713e-01   1.06711e+00   1.29911e+00
Si    4.13469e-02   8.07431e+00   2.61899e+00 -9.06699e-01   4.50964e-01   2.06072e+00
Si    2.73780e+00   5.29324e+00   2.67703e+00 -9.46006e-01   1.25441e+00   6.86030e-01
Si    1.36368e+00   6.80799e+00   1.26114e+00  2.08490e-01  -1.95505e+00  -6.76188e-01
Si    4.09960e+00   9.30543e+00   1.46134e+00 -6.61596e-01   2.28213e+00  -1.57565e+00
Si    1.37692e+00   9.51163e+00   4.05423e+00 -3.13481e-01  -3.78352e-01  -5.20131e-01
Si    4.04796e+00   6.73670e+00   4.10359e+00 -5.70977e-01   7.07726e-02  -5.28322e-01
Si    5.58025e+00   5.28792e+00   1.07902e+01 -1.64967e+00   5.82819e-01   3.82118e-01
Si    8.09780e+00   8.27426e+00  -5.02603e-02  1.01668e+00  -1.23707e+00   1.76682e+00
Si    5.45401e+00   7.98935e+00   2.65389e+00 -1.40042e-03  -4.08867e-01   1.16851e+00
Si    8.19134e+00   5.45517e+00   2.74513e+00 -2.11447e-01  -1.93277e-01  -4.30604e-01
Si    6.80837e+00   6.70245e+00   1.30070e+00  1.02502e+00   6.28443e-01  -2.55613e-01
Si    9.62758e+00   9.59197e+00   1.33670e+00 -8.85008e-01  -8.23344e-01  -6.87392e-01
Si    6.71607e+00   9.49677e+00   3.91131e+00  1.32517e-01   2.83806e-02   9.60273e-01
Si    9.45308e+00   6.69685e+00   4.22257e+00  9.75285e-01   1.98496e+00  -1.43637e+00
Si    1.08125e+01   1.08040e+01   5.39808e+00 -2.95096e-02   1.07308e+00  -5.23885e-01
Si    2.72869e+00   2.64181e+00   5.56742e+00 -5.09597e-01  -1.01323e-01  -1.32676e+00
Si    5.93812e-02   2.82319e+00   8.19459e+00 -1.61327e+00  -1.43547e+00  -1.63984e+00
Si    2.66938e+00  -1.79995e-02   8.10724e+00  1.04923e+00   3.16018e-01   9.57972e-01
Si    1.30460e+00   1.26884e+00   6.79055e+00 -5.43040e-01   9.55972e-01   3.61591e-01
Si    4.11961e+00   3.92050e+00   6.82434e+00 -6.78491e-02   1.67284e+00   1.02912e+00
Si    1.48561e+00   4.19568e+00   9.29553e+00 -4.98478e-01   1.55756e-01   2.36709e+00
Si    4.04942e+00   1.29596e+00   9.62372e+00 -2.59913e-02  -7.79709e-01  -1.21377e+00
Si    5.36245e+00  -3.16606e-04   5.35929e+00  6.38432e-01  -1.00385e+00   1.90563e-01
Si    8.07695e+00   2.70584e+00   5.51283e+00  1.11064e-01  -1.31229e-01  -1.31845e+00
Si    5.40261e+00   2.55568e+00   8.21405e+00  1.22135e+00   1.73026e-01  -4.59671e-01
Si    8.14211e+00   4.32047e-02   8.22805e+00 -2.86354e-01  -8.79937e-01   2.01806e-02
Si    6.79296e+00   1.20783e+00   6.75639e+00 -8.57057e-01   1.20297e+00   7.20644e-01
Si    9.41773e+00   4.12236e+00   6.71365e+00  1.47969e-01  -1.03157e+00   2.83327e+00
Si    6.92208e+00   3.95314e+00   9.44255e+00 -1.44268e+00  -9.06188e-01   4.83619e-01
Si    9.54559e+00   1.31006e+00   9.56442e+00 -2.02382e-01   1.88091e+00  -7.32222e-01
Si    1.08057e+01   5.46958e+00   5.63611e+00  1.48590e+00  -3.96542e-01  -2.16172e+00
Si    2.65544e+00   8.13879e+00   5.44795e+00  8.50189e-01   1.07866e-01  -1.80086e-01
Si    1.07921e+01   8.25846e+00   8.05486e+00 -1.38131e-01  -7.84779e-01   8.50077e-01
Si    2.87773e+00   5.56934e+00   8.12956e+00  3.23228e-01  -6.38906e-01  -8.98701e-01
Si    1.36415e+00   6.82676e+00   6.85594e+00 -1.60626e-01   3.39587e-01   1.02963e-01
Si    4.05759e+00   9.50625e+00   6.82040e+00 -7.15978e-02  -3.17538e-02  -8.89894e-01
Si    1.39564e+00   9.49515e+00   9.44896e+00 -5.04924e-01  -2.62603e-01  -1.37014e-02
Si    4.19832e+00   6.90630e+00   9.52284e+00  8.81294e-01  -2.06706e+00  -1.70153e-01
Si    5.34408e+00   5.49791e+00   5.56312e+00  1.10431e+00  -1.37360e+00  -1.34235e+00
Si    8.04811e+00   8.20714e+00   5.38433e+00  4.76377e-01   1.27758e-01  -3.24582e-01
Si    5.49212e+00   8.24841e+00   8.17351e+00 -2.40319e-02   5.87749e-01   3.04719e-01
Si    8.01385e+00   5.42877e+00   8.10212e+00  9.42614e-01   5.05595e-01  -9.66221e-01
Si    6.74408e+00   6.89819e+00   6.75325e+00 -1.43690e-01  -4.73957e-01   8.34637e-01
Si    9.40121e+00   9.58892e+00   6.73487e+00 -1.62645e-01  -5.72535e-01   3.31949e-01
Si    6.72209e+00   9.63110e+00   9.68683e+00  6.89071e-01  -2.67721e-01  -2.68312e+00
Si    9.33481e+00   6.84279e+00   9.39457e+00  1.64417e-02   1.59428e+00  -1.03436e+00
