64
Lattice="10.862 0 0 0 10.862 0 0 0 10.862 " PBC="1 1 1" Properties=species:S:1:pos:R:3:force:R:3 Energy="-267.68104"
Si   -5.39916e-02  -8.36831e-02   8.00099e-02  7.82391e-01   5.85633e-01  -6.86067e-01
Si    2.62519e+00   2.72782e+00  -9.50383e-03  9.88839e-01   8.62453e-01   4.11953e-04
Si    1.09196e+01   2.58114e+00   2.87946e+00  1.21065e+00   1.07344e+00  -6.94324e-01
Si    2.77804e+00  -4.95088e-02   2.66325e+00  2.24747e-01  -3.09176e-01   2.60935e-02
Si    1.41771e+00   1.33702e+00   1.39818e+00 -1.18116e+00  -6.51892e-01  -1.48096e-01
Si    4.06985e+00   4.12445e+00   1.35820e+00 -2.35040e+00  -1.83080e-01  -1.87778e-01
Si    1.34836e+00   4.05072e+00   4.22639e+00 -6.14819e-01  -5.98409e-01  -9.38822e-01
Si    4.05176e+00   1.32695e+00   4.07866e+00 -7.45042e-01   7.85047e-01  -1.36977e+00
Si    5.51377e+00   1.10603e+01   1.61281e-01 -4.21876e-01  -1.94696e+00  -1.29896e+00
Si    8.28218e+00   2.86284e+00   1.46360e-01 -1.64292e-01   5.96885e-01  -4.68236e-01
Si    5.27254e+00   2.85415e+00   2.76510e+00  1.76797e+00  -1.21304e+00   1.99388e-01
Si    8.10504e+00   1.09971e+01   2.76235e+00  5.98238e-02  -2.35100e+00  -1.19943e+00
Si    6.83911e+00   1.60625e+00   1.42564e+00 -5.89103e-01  -2.98956e-01   1.01514e+00
Si    9.81551e+00   4.07673e+00   1.50657e+00 -1.63710e+00   6.04164e-01  -6.28109e-01
Si    6.78195e+00   4.09018e+00   4.07585e+00 -7.94062e-02   8.95502e-02   6.43429e-02
Si    9.47786e+00   1.34342e+00   4.07716e+00 -2.76184e-01   9.58086e-02   1.10047e+00
Si    1.09140e+01   5.47723e+00   1.07758e+01 -1.24796e+00   2.24673e-01   4.17712e-01
Si    2.74259e+00   8.03948e+00   1.07946e+01  4.47937e-01   9.97520e-01  -7.57055e-02
Si   -3.13068e-02   8.03793e+00   2.67175e+00  4.47805e-01   1.48113e-01   1.76253e-01
Si    2.50668e+00   5.37796e+00   2.74569e+00  1.97539e+00   8.59119e-01  -8.21806e-01
Si    1.35254e+00   6.79086e+00   1.23738e+00 -2.85731e-01  -3.67548e-01   1.20865e+00
Si    4.13167e+00   9.40662e+00   1.31844e+00  4.83720e-01   5.51163e-01  -2.01716e-01
Si    1.39980e+00   9.42336e+00   3.93608e+00 -9.22989e-01   9.09697e-01   6.30908e-01
Si    3.99553e+00   6.84688e+00   3.97731e+00 -3.07999e-01  -1.03292e+00   6.69563e-01
Si    5.42501e+00   5.30075e+00   1.08012e+01  6.45336e-01   1.46704e+00   1.63379e-01
Si    8.09206e+00   8.19124e+00  -8.86250e-02 -4.07306e-01  -9.20556e-01   2.60231e-01
Si    5.53252e+00   7.99243e+00   2.62456e+00 -1.72724e-01   3.83735e-01  -1.06547e-01
Si    8.27760e+00   5.41841e+00   2.78385e+00  1.25569e-01  -9.79061e-01  -1.62091e-01
Si    6.94134e+00   6.60199e+00   1.29738e+00 -1.07867e+00   9.07542e-01  -5.62413e-01
Si    9.44074e+00   9.35045e+00   1.36738e+00 -4.76411e-01   2.11035e+00   7.22780e-01
Si    6.82743e+00   9.37217e+00   4.04000e+00  4.08239e-01   5.83782e-01  -3.64402e-01
Si    9.55670e+00   6.75725e+00   4.17027e+00  1.12605e-01   5.71246e-02   3.49459e-01
Si    1.08675e+01   1.08532e+01   5.32672e+00  2.72969e-01  -9.90178e-01   7.26616e-01
Si    2.66635e+00   2.64024e+00   5.41690e+00  6.27384e-01  -9.21770e-02   1.79399e+00
Si   -5.05526e-02   2.78770e+00   8.11428e+00 -2.60880e-01   4.62034e-01   8.07165e-01
Si    2.72562e+00   2.06213e-02   8.23520e+00 -3.00994e-01   8.74374e-02  -1.18816e+00
Si    1.25178e+00   1.33613e+00   6.85045e+00  9.92884e-01  -2.54673e-01  -6.02695e-01
Si    4.04819e+00   4.04144e+00   6.83548e+00  5.60697e-01  -1.92437e+00  -9.59212e-01
Si    1.36555e+00   4.20982e+00   9.45392e+00  1.44765e-01  -1.81167e+00  -7.36864e-01
Si    4.07106e+00   1.35934e+00   9.58098e+00 -1.39784e-01   2.80066e-01   5.30832e-01
Si    5.45195e+00   2.70339e-03   5.20100e+00  5.58130e-01  -5.80305e-01   2.93517e+00
Si    8.09350e+00   2.67763e+00   5.43124e+00  4.13004e-01   7.69271e-01  -3.50397e-02
Si    5.46021e+00   2.65384e+00   8.26507e+00 -2.62741e-01   1.13978e+00  -9.10687e-01
Si    8.22556e+00   5.72464e-02   8.18359e+00 -4.39898e-01   2.68059e-01  -5.81039e-01
Si    6.75318e+00   1.37213e+00   6.80591e+00  3.12160e-02  -1.19842e+00  -4.59656e-01
Si    9.44140e+00   4.15800e+00   6.72593e+00  5.60817e-01  -1.69195e+00  -1.70043e-02
Si    6.88915e+00   4.09467e+00   9.49438e+00  2.83989e-01  -6.01329e-01  -1.87223e-01
Si    9.48295e+00   1.47512e+00   9.61121e+00  9.61167e-01  -9.77602e-01  -3.48251e-01
Si    1.09451e+01   5.41873e+00   5.55181e+00 -8.84339e-01   5.45297e-01  -1.06508e+00
Si    2.70398e+00   8.24892e+00   5.44106e+00  1.94708e-02  -1.24046e+00  -9.68167e-01
Si    1.08685e+01   8.11780e+00   8.10608e+00  3.16180e-02   4.10031e-02   7.33017e-01
Si    2.72522e+00   5.40886e+00   7.99256e+00 -3.73378e-01   9.41239e-01   1.59771e+00
Si    1.39361e+00   6.83397e+00   6.76536e+00  2.07116e-01   2.52048e-01   7.14261e-02
Si    4.02638e+00   9.59059e+00   6.71119e+00  1.08307e+00   7.82563e-01   5.77381e-01
Si    1.39211e+00   9.44892e+00   9.47371e+00 -8.09205e-01   1.84388e-01   8.80890e-01
Si    4.06245e+00   6.68918e+00   9.43887e+00  6.88259e-01   5.87803e-01  -2.99701e-01
Si    5.28714e+00   5.36339e+00   5.37557e+00  5.00950e-01   1.32759e+00   3.11726e-01
Si    8.14373e+00   8.07433e+00   5.55549e+00 -5.19689e-01   1.64214e-01  -5.04564e-01
Si    5.39055e+00   8.28306e+00   8.16466e+00 -1.55790e+00  -4.19950e-01   1.35909e-01
Si    8.14747e+00   5.47054e+00   8.00251e+00 -1.55347e+00   6.73934e-01   1.44675e+00
Si    6.54078e+00   6.83218e+00   6.86343e+00  1.66700e+00  -1.07843e+00  -1.54904e+00
Si    9.54929e+00   9.48907e+00   6.80734e+00 -3.05482e-01   7.14050e-01  -4.55833e-01
Si    6.76447e+00   9.61276e+00   9.44271e+00  3.00028e-02   7.38198e-01   1.55672e+00
Si    9.41349e+00   6.80602e+00   9.45582e+00  1.05140e+00  -1.37698e-01  -3.27596e-01
