64
Lattice="10.862 0 0 0 10.862 0 0 0 10.862 " PBC="1 1 1" Properties=species:S:1:pos:R:3:force:R:3 Energy="-268.20937"
Si   -1.30958e-01  -4.45722e-02  -2.45737e-02  1.59901e+00   3.65195e-01  -2.82864e-01
Si    2.74811e+00   2.74249e+00  -8.66900e-02  3.49085e-02  -6.30839e-02   5.98843e-01
Si    1.08468e+01   2.71879e+00   2.60494e+00  1.34302e+00   7.51457e-02   6.72341e-01
Si    2.71658e+00   5.98803e-02   2.73431e+00  6.80990e-01   7.63824e-01  -3.09767e-01
Si    1.42926e+00   1.32739e+00   1.27934e+00 -1.42353e+00   2.55888e-01  -3.48697e-01
Si    4.13101e+00   4.15665e+00   1.23735e+00 -1.30879e+00  -4.00094e-01   9.21277e-01
Si    1.41611e+00   4.11291e+00   4.06874e+00 -2.31415e+00  -1.22364e+00   3.45619e-01
Si    3.89297e+00   1.62244e+00   4.13712e+00  1.88437e+00  -1.90644e+00  -1.79906e+00
Si    5.38653e+00   1.08318e+01   1.01022e-01 -7.41419e-01  -1.40021e+00  -1.97470e+00
Si    8.06552e+00   2.61730e+00  -1.41603e-01 -6.57907e-01   1.17604e+00   6.95128e-01
Si    5.34450e+00   2.80481e+00   2.65506e+00  1.48645e+00  -1.21032e+00   2.73531e-02
Si    8.15185e+00   1.09262e+01   2.74447e+00  8.51602e-01  -1.64950e+00  -6.63403e-01
Si    6.75337e+00   1.23346e+00   1.27200e+00  2.44748e-01   2.47965e+00   1.80027e+00
Si    9.35849e+00   3.98137e+00   1.33191e+00  4.00486e-04   3.59306e-01  -4.86620e-01
Si    6.91998e+00   3.95532e+00   4.06619e+00 -6.16765e-01  -9.51397e-02  -1.80296e-02
Si    9.67267e+00   1.28805e+00   4.02726e+00 -6.78005e-01   2.94639e-01   4.85011e-01
Si    1.07475e+01   5.30060e+00   1.08198e+01  9.17634e-01   1.14160e+00   9.26132e-01
Si    2.62413e+00   8.14861e+00   1.09743e+01 -7.89796e-01  -5.00322e-01  -9.96883e-01
Si    1.70481e-01   8.06090e+00   2.80041e+00 -1.30954e+00  -1.16020e-01  -8.52353e-01
Si    2.79923e+00   5.35590e+00   2.85395e+00  6.80681e-01   4.19127e-01  -2.20233e+00
Si    1.43417e+00   6.61849e+00   1.45016e+00 -1.24975e+00  -8.39469e-02  -8.78200e-01
Si    3.94516e+00   9.47833e+00   1.38127e+00  1.20843e+00   8.70978e-01   9.26314e-01
Si    1.59708e+00   9.42102e+00   3.98910e+00 -1.23997e+00   2.42862e-01   1.21308e+00
Si    4.11200e+00   6.73608e+00   4.10240e+00  4.91374e-01  -5.14217e-01   7.33915e-01
Si    5.43062e+00   5.54472e+00   1.08564e+01 -4.49674e-01   1.93735e+00   7.50838e-01
Si    8.15252e+00   8.23610e+00   1.41260e-02 -1.18462e+00  -1.00775e+00  -1.19146e-01
Si    5.27760e+00   8.27747e+00   2.92194e+00  1.20353e+00  -8.65649e-02  -1.18262e+00
Si    8.11566e+00   5.46962e+00   2.72855e+00  2.50914e-01  -4.25845e-01   5.77588e-02
Si    6.70646e+00   6.94181e+00   1.56972e+00  9.48268e-02  -1.14262e-01  -1.87049e+00
Si    9.56405e+00   9.40437e+00   1.38652e+00 -2.12351e-01   9.56945e-01   1.42350e+00
Si    6.88352e+00   9.51704e+00   4.15363e+00 -8.80613e-01   8.36930e-01  -1.89996e-01
Si    9.48404e+00   6.79102e+00   4.10534e+00  2.33185e-01   1.54804e-01   2.55800e-01
Si    1.10514e+01   1.07773e+01   5.34574e+00 -4.15339e-01  -2.38158e-01  -2.02618e-01
Si    2.66786e+00   2.83713e+00   5.51182e+00 -1.30251e-01   9.73950e-01   8.83233e-01
Si    6.18428e-02   2.62259e+00   8.11883e+00 -1.11436e+00   9.05850e-01  -3.65996e-01
Si    2.70480e+00  -4.86297e-02   8.07245e+00  8.43289e-01  -1.78225e-01   5.51264e-01
Si    1.38131e+00   1.34792e+00   6.72360e+00  3.83480e-01  -3.36379e-01   3.53915e-01
Si    4.05043e+00   4.28844e+00   6.80835e+00  4.59422e-01  -2.35060e+00   2.68926e-01
Si    1.31383e+00   4.03070e+00   9.46543e+00  1.00955e-01  -2.42618e-03  -3.96699e-03
Si    4.12212e+00   1.33857e+00   9.52609e+00 -5.75873e-01  -1.76416e-01  -7.19455e-01
Si    5.44962e+00   2.09315e-01   5.28899e+00 -3.38379e-01  -8.82432e-01   1.50115e+00
Si    8.24993e+00   2.54846e+00   5.49861e+00  1.42345e-01   1.25114e+00  -7.74664e-01
Si    5.43565e+00   2.85358e+00   8.25227e+00 -1.00674e+00   1.23566e-01  -1.01813e+00
Si    8.15159e+00   3.44811e-02   8.03228e+00 -2.91411e-01  -8.63310e-01   4.31728e-01
Si    6.73891e+00   1.45714e+00   6.87366e+00 -1.51958e-01  -4.27698e-01  -8.09690e-01
Si    9.49886e+00   4.08912e+00   6.80484e+00  4.03927e-01  -2.04788e+00   2.92065e-01
Si    6.72417e+00   4.27834e+00   9.52820e+00  2.02529e+00  -1.45506e+00  -4.72101e-01
Si    9.45990e+00   1.33861e+00   9.40326e+00  4.69849e-01  -3.37206e-01   3.19042e-01
Si    1.07670e+01   5.35706e+00   5.44531e+00  1.05680e+00   6.98816e-01  -1.02745e+00
Si    2.84424e+00   8.09568e+00   5.41169e+00 -1.32457e+00  -7.08181e-01   8.91536e-01
Si    1.08842e+01   8.07360e+00   8.16612e+00 -5.88953e-01   9.53046e-01  -1.04613e+00
Si    2.59319e+00   5.45649e+00   8.12607e+00 -3.77861e-02   3.95970e-01   6.33173e-01
Si    1.24474e+00   6.74043e+00   6.76619e+00  1.29313e+00   5.69686e-01  -9.15193e-01
Si    4.19299e+00   9.45371e+00   6.69784e+00 -1.07885e-01   1.29892e+00   3.21151e-01
Si    1.28461e+00   9.43445e+00   9.46531e+00  8.03532e-01   1.03062e+00   8.86034e-01
Si    3.87825e+00   6.83129e+00   9.52712e+00  1.19125e+00  -4.32637e-01   1.29781e-01
Si    5.52717e+00   5.33900e+00   5.37010e+00  6.36159e-02   1.02122e+00   4.25321e-01
Si    8.16946e+00   8.15385e+00   5.56309e+00 -2.97104e-01  -6.92493e-01  -5.69262e-01
Si    5.39271e+00   8.02838e+00   8.16224e+00 -5.62824e-01   1.31447e+00   4.42992e-01
Si    8.25648e+00   5.47046e+00   8.11694e+00 -1.45701e+00   2.17053e-01   1.06278e+00
Si    6.73415e+00   6.72776e+00   6.88077e+00  1.20554e+00  -1.42705e-01  -1.45994e+00
Si    9.61152e+00   9.51797e+00   6.74854e+00  8.52546e-02  -1.13114e-02   5.64781e-01
Si    6.73015e+00   9.54286e+00   9.41689e+00  3.65005e-01  -1.60924e-01   8.13414e-01
Si    9.52699e+00   6.85666e+00   9.49550e+00 -6.41448e-01  -8.43197e-01   9.54265e-01
