64
Lattice="10.862 0 0 0 10.862 0 0 0 10.862 " PBC="1 1 1" Properties=species:S:1:pos:R:3:force:R:3 Energy="-267.70162"
Si   -3.88440e-02   2.95300e-02  -3.65745e-02 -7.56556e-02   3.14735e-02  -4.36913e-01
Si    2.83023e+00   2.61562e+00   5.49229e-03 -2.46878e+00   8.08048e-01   1.24740e+00
Si    1.07106e+01   2.73661e+00   2.51874e+00 -7.66122e-02   2.32933e-01   2.34621e+00
Si    2.52804e+00   9.09341e-02   2.87853e+00  9.33450e-01   7.59004e-01  -1.77637e+00
Si    1.19896e+00   1.40882e+00   1.32015e+00  2.02357e+00  -7.99459e-01  -2.15820e-01
Si    4.02941e+00   3.93266e+00   1.46495e+00  1.41493e+00   1.47266e+00  -6.58215e-01
Si    1.27479e+00   3.98947e+00   3.98482e+00  7.59075e-01   5.21393e-01   3.10730e-02
Si    4.07337e+00   1.44534e+00   4.04337e+00  1.50223e+00  -1.25458e+00   6.66276e-01
Si    5.38096e+00   1.07294e+01  -2.17837e-02 -9.88774e-01   1.03243e+00   7.63306e-01
Si    8.11801e+00   2.61054e+00  -1.44397e-01  1.34102e-01   1.48787e+00   4.70244e-01
Si    5.62987e+00   2.68108e+00   2.65968e+00 -2.20650e+00  -9.38695e-02   3.28174e-01
Si    8.10637e+00   1.08796e+01   2.60763e+00  3.31627e-01   5.46660e-01   1.23254e+00
Si    6.80029e+00   1.33771e+00   1.21840e+00 -3.91985e-01  -1.10552e+00   1.18553e-03
Si    9.30551e+00   4.09467e+00   1.34826e+00  2.90934e-01   2.76243e-02  -1.38400e+00
Si    6.77874e+00   4.11856e+00   4.00972e+00  1.48772e+00   2.47357e-01   3.01791e-01
Si    9.44877e+00   1.38524e+00   4.04038e+00 -3.03060e-01   1.62977e-01  -1.07035e+00
Si    1.08424e+01   5.37530e+00   1.09391e+01  4.92301e-01   4.03785e-01   2.89211e-01
Si    2.63655e+00   8.17630e+00   1.08180e+01 -1.52980e-01  -7.80389e-01   3.98930e-01
Si    7.13122e-02   8.20758e+00   2.65494e+00 -5.31483e-01   7.59099e-01   1.33864e+00
Si    2.73910e+00   5.46260e+00   2.73653e+00  6.10913e-01  -1.18575e+00   1.26714e+00
Si    1.41225e+00   6.76062e+00   1.48037e+00 -8.53887e-01   3.94893e-01  -2.42404e+00
Si    3.80294e+00   9.53451e+00   1.44312e+00  1.68840e+00   5.62406e-01  -2.59416e-01
Si    1.42613e+00   9.52287e+00   4.21203e+00 -1.49854e+00  -7.29532e-01  -1.14680e-02
Si    4.19423e+00   6.85849e+00   4.04890e+00 -1.20222e+00  -2.62512e-01   2.46199e-01
Si    5.43753e+00   5.43939e+00   1.09555e+01 -1.02681e+00  -5.00663e-01   2.79361e-01
Si    8.09949e+00   8.19842e+00   1.64135e-01  1.33346e+00  -4.08731e-01  -1.72985e+00
Si    5.41811e+00   8.28374e+00   2.70866e+00 -3.05779e-01   2.44653e-01   1.01138e-01
Si    8.12245e+00   5.60209e+00   2.67517e+00 -6.95839e-01  -1.41774e+00   4.26292e-01
Si    6.74120e+00   6.90961e+00   1.39936e+00 -6.84026e-01  -6.34278e-01   9.97345e-02
Si    9.48271e+00   9.60069e+00   1.33215e+00  8.91278e-01  -8.41135e-01   4.33779e-01
Si    6.88800e+00   9.51913e+00   4.08709e+00 -4.56628e-01  -1.67060e-01   1.85850e-02
Si    9.50297e+00   6.84790e+00   3.99204e+00  7.01877e-01   3.43367e-01   8.45500e-02
Si    1.08135e+01   1.09693e+01   5.39919e+00  6.94191e-01  -7.01816e-01  -6.92300e-03
Si    2.76274e+00   2.73194e+00   5.44826e+00 -7.03348e-01   7.65271e-01  -1.78625e+00
Si    8.08247e-02   2.72668e+00   8.19564e+00 -1.12040e-01   5.34984e-01  -1.73595e+00
Si    2.65452e+00  -7.83949e-02   7.97861e+00  1.04895e+00   7.58583e-01   1.02386e+00
Si    1.36884e+00   1.45999e+00   6.68145e+00 -3.69465e-01  -1.14679e+00   1.30658e+00
Si    4.09856e+00   4.10567e+00   6.65975e+00  1.01847e-01   1.03638e+00   2.42483e+00
Si    1.39991e+00   3.99688e+00   9.59409e+00  9.45463e-02   7.23126e-01   2.76088e-01
Si    4.03116e+00   1.35564e+00   9.52659e+00  9.08691e-01  -2.11388e+00  -1.99027e+00
Si    5.55301e+00  -1.98984e-02   5.50110e+00 -9.91773e-01   6.67895e-01  -1.35516e+00
Si    8.09885e+00   2.69896e+00   5.43078e+00 -1.28839e-01   9.44314e-02   1.12363e-01
Si    5.42939e+00   2.75482e+00   8.20869e+00 -8.44886e-01  -9.48730e-01  -1.52806e+00
Si    8.11618e+00  -1.11909e-01   8.15079e+00  2.06452e+00   1.76468e-02   4.50171e-01
Si    6.85411e+00   1.26183e+00   6.91717e+00 -9.63573e-01   1.94998e+00  -8.10032e-01
Si    9.55795e+00   4.04468e+00   6.69889e+00  1.08355e-01  -3.29729e-01   8.89622e-01
Si    6.69475e+00   4.06886e+00   9.52744e+00  1.82812e+00   7.54741e-01   8.03895e-02
Si    9.57989e+00   1.37873e+00   9.39961e+00 -1.27352e+00  -1.33049e+00   2.07168e-01
Si    1.08107e+01   5.43236e+00   5.29978e+00  6.49092e-01   3.91217e-02   6.81809e-01
Si    2.82022e+00   8.12150e+00   5.53356e+00 -8.28820e-01  -7.58731e-01  -4.67494e-01
Si    1.08102e+01   8.17617e+00   8.22146e+00 -9.63448e-02  -2.99856e-01  -1.29782e+00
Si    2.64033e+00   5.48088e+00   8.24982e+00  7.97212e-01  -1.60846e+00  -1.51408e+00
Si    1.25293e+00   6.75551e+00   6.85694e+00  6.11666e-01   4.66347e-01  -8.22259e-01
Si    4.26354e+00   9.40077e+00   6.78191e+00 -7.48550e-01   4.98647e-01   1.00859e+00
Si    1.26815e+00   9.52952e+00   9.45940e+00  1.01397e+00   3.70249e-01   2.35655e-01
Si    4.06316e+00   6.75026e+00   9.53196e+00  1.92173e-01   5.38612e-01   7.44603e-01
Si    5.51677e+00   5.49071e+00   5.36347e+00 -2.46030e-01  -4.78488e-01   5.75150e-01
Si    8.18362e+00   8.05970e+00   5.46011e+00  1.49119e-01   8.73877e-01  -7.00214e-01
Si    5.54112e+00   7.99345e+00   8.19878e+00  2.18176e-01   5.32687e-01  -8.24194e-02
Si    8.30646e+00   5.35624e+00   8.20390e+00 -8.59803e-01  -3.44657e-02   3.91747e-01
Si    6.94688e+00   6.66232e+00   6.81839e+00 -7.10386e-01   2.74453e-01   2.98863e-01
Si    9.55349e+00   9.48363e+00   6.69307e+00 -6.08271e-01   1.44599e-01   1.23843e+00
Si    6.83560e+00   9.45112e+00   9.58605e+00 -7.47724e-01  -6.08493e-01  -7.94808e-01
Si    9.54725e+00   6.84613e+00   9.60744e+00 -9.23573e-01  -5.39108e-01   5.40487e-01
