64
Lattice="10.862 0 0 0 10.862 0 0 0 10.862 " PBC="1 1 1" Properties=species:S:1:pos:R:3:force:R:3 Energy="-267.45699"
Si    1.23662e-01  -4.93843e-02   5.94312e-02 -3.47050e-01   2.56597e+00  -2.12462e-01
Si    2.85316e+00   2.68389e+00   8.07382e-02 -3.74344e-01  -5.52934e-01   1.08965e-01
Si    1.07127e+01   2.75983e+00   2.71713e+00  1.66139e+00  -3.11412e-01  -1.60067e-01
Si    2.65301e+00   3.13298e-02   2.79173e+00 -1.88506e-01  -5.23552e-01   1.03193e+00
Si    1.41299e+00   1.43794e+00   1.48341e+00 -9.38955e-01  -2.72737e-01  -1.03121e+00
Si    4.17609e+00   3.93967e+00   1.51122e+00  1.43685e-01   1.97858e+00  -1.70924e+00
Si    1.29449e+00   4.03689e+00   4.05037e+00  5.78700e-01   9.45783e-01  -6.56921e-01
Si    4.03770e+00   1.35701e+00   4.17443e+00  9.65649e-01  -5.87580e-01  -4.09672e-01
Si    5.40776e+00   1.07790e+01  -4.36025e-02  3.76898e-01   9.02863e-01   3.87433e-01
Si    8.20966e+00   2.82893e+00  -1.57182e-01 -1.28833e+00  -1.39844e+00   1.61841e+00
Si    5.54845e+00   2.57916e+00   2.72331e+00 -9.97310e-01  -6.77876e-01   7.87921e-01
Si    8.12213e+00   1.08094e+01   2.82512e+00  1.61173e+00   6.62762e-01  -5.48007e-01
Si    6.91735e+00   1.30101e+00   1.37755e+00 -5.86521e-01   4.50909e-02  -1.97542e+00
Si    9.41328e+00   4.03997e+00   1.34533e+00  3.35271e-01   1.08881e+00   1.11339e-01
Si    6.82428e+00   3.91952e+00   4.02287e+00 -6.38286e-01   1.83608e+00   7.08240e-01
Si    9.50070e+00   1.46824e+00   4.12919e+00 -1.91697e+00  -1.20570e+00   3.90499e-01
Si    1.08587e+01   5.39559e+00   1.09722e+01  6.75903e-01  -1.19125e-01   6.95699e-02
Si    2.74841e+00   8.12444e+00   1.06367e+01 -1.25547e+00   4.09868e-01   1.74410e+00
Si    6.06946e-02   8.13816e+00   2.71204e+00  2.46449e-01   4.27380e-01  -1.20565e+00
Si    2.70227e+00   5.46448e+00   2.60834e+00  1.55200e+00  -3.07783e+00   2.77841e+00
Si    1.50929e+00   6.67400e+00   1.33400e+00 -2.26917e+00   3.34228e+00  -1.70920e+00
Si    3.90510e+00   9.52620e+00   1.34412e+00  7.95196e-01  -2.09141e-01  -9.18585e-01
Si    1.17548e+00   9.57605e+00   4.21234e+00  1.65850e+00  -4.64177e-01  -2.07734e-01
Si    4.07599e+00   6.76214e+00   3.97787e+00 -7.46816e-01   8.46914e-01  -3.83617e-01
Si    5.45289e+00   5.51764e+00   1.08923e+01 -2.78136e-01  -1.02836e+00   8.17953e-01
Si    8.29022e+00   8.18939e+00   1.91027e-02 -5.29884e-01   2.12482e-01  -5.30444e-01
Si    5.35734e+00   8.15707e+00   2.56585e+00  4.69277e-01   2.75215e-01   1.25572e+00
Si    8.10695e+00   5.40598e+00   2.71695e+00 -6.05196e-03   1.44983e-01  -4.33208e-01
Si    6.88090e+00   6.88862e+00   1.34304e+00 -5.68686e-01  -7.66441e-01  -2.48504e-01
Si    9.56463e+00   9.58966e+00   1.33585e+00 -1.42506e-01  -8.95257e-01   1.56204e+00
Si    6.79528e+00   9.39898e+00   4.06081e+00 -1.23260e+00   1.95171e-01  -1.69914e-01
Si    9.46703e+00   6.86540e+00   3.93828e+00 -1.87299e-01  -7.73715e-01   3.24131e-01
Si    1.07072e+01   1.09915e+01   5.56962e+00  1.12787e+00  -5.71107e-02  -4.04271e-01
Si    2.68266e+00   2.74527e+00   5.48554e+00 -2.58578e-02   4.00428e-01  -9.57273e-01
Si    8.11620e-02   2.82444e+00   8.24774e+00  2.68043e-01   1.04206e+00  -4.41332e-01
Si    2.70942e+00  -6.16057e-02   8.01555e+00 -1.83796e-02   5.89992e-01   1.58019e-01
Si    1.33999e+00   1.50050e+00   6.84186e+00 -2.05398e-01  -1.51974e+00   1.01045e-01
Si    4.03739e+00   4.14253e+00   6.72195e+00  9.70233e-02   6.81915e-02   6.21531e-01
Si    1.47927e+00   4.09206e+00   9.72502e+00 -1.08996e+00  -4.26097e-01  -9.70886e-01
Si    4.03611e+00   1.31886e+00   9.40398e+00 -2.88067e-02  -6.02036e-01   1.31020e+00
Si    5.45452e+00  -1.10066e-01   5.47861e+00  2.42170e-01   1.29152e+00  -2.90397e-01
Si    8.00982e+00   2.67686e+00   5.53988e+00  1.32692e+00   2.45395e-01   4.10827e-01
Si    5.30370e+00   2.80660e+00   8.22499e+00  8.84268e-01   7.51322e-01  -5.92542e-01
Si    8.15046e+00   3.18652e-02   8.18309e+00  1.02368e+00   6.77718e-01   3.98102e-01
Si    6.66875e+00   1.37580e+00   6.99643e+00  5.26093e-02  -5.14617e-01  -1.50444e+00
Si    9.52421e+00   4.12225e+00   6.77615e+00 -5.92693e-01  -5.89055e-02   5.14010e-01
Si    6.79430e+00   4.21182e+00   9.49053e+00 -7.16308e-01  -7.19398e-01   1.37685e-01
Si    9.65752e+00   1.48418e+00   9.53960e+00 -7.54633e-01  -2.25089e+00  -1.35896e-01
Si    1.07616e+01   5.48414e+00   5.25212e+00 -1.06997e-01  -1.14512e+00   7.30738e-01
Si    2.68200e+00   8.02475e+00   5.44776e+00 -5.99760e-01   6.31112e-01  -4.51393e-01
Si    1.08651e+01   8.15603e+00   8.15634e+00 -6.34374e-01  -8.09088e-03  -1.65872e+00
Si    2.58395e+00   5.36609e+00   8.14962e+00  9.92099e-01   2.24936e-01  -4.10204e-01
Si    1.20118e+00   6.63624e+00   6.73882e+00  9.27478e-01   1.55706e+00   5.23272e-01
Si    4.14544e+00   9.38225e+00   6.74163e+00 -1.22912e+00  -6.60218e-02   3.03445e-01
Si    1.28162e+00   9.56982e+00   9.40567e+00  1.68669e+00  -8.72316e-01   1.15818e-01
Si    4.04954e+00   6.69751e+00   9.42812e+00  9.76012e-01   5.64858e-01  -8.97935e-01
Si    5.40697e+00   5.45168e+00   5.27608e+00  6.81571e-01  -1.58507e+00   3.31459e-01
Si    8.13480e+00   8.07533e+00   5.37797e+00  4.26151e-01   6.57014e-01  -5.45318e-01
Si    5.52878e+00   8.09089e+00   8.07339e+00 -1.25608e-01  -8.84817e-01   3.26616e-01
Si    8.22730e+00   5.52818e+00   8.28123e+00  8.34244e-02   1.05209e-01  -2.14593e+00
Si    6.84163e+00   6.70804e+00   6.60615e+00 -2.12034e-01  -2.09504e-01   2.21488e+00
Si    9.38627e+00   9.48830e+00   6.73189e+00  5.90552e-01  -1.47938e-01   1.40922e+00
Si    6.87257e+00   9.48113e+00   9.46326e+00 -5.08788e-01  -5.63549e-01   6.40749e-01
Si    9.68309e+00   6.82961e+00   9.59704e+00 -1.11562e+00  -1.91542e-01  -2.78788e-02
