64
Lattice="10.862 0 0 0 10.862 0 0 0 10.862 " PBC="1 1 1" Properties=species:S:1:pos:R:3:force:R:3 Energy="-267.83505"
Si   -1.31867e-01  -8.03439e-02  -1.10513e-01  1.36798e+00   1.39337e+00   4.20429e-01
Si    2.65055e+00   2.77774e+00  -5.76535e-02  1.26257e+00  -5.73646e-01  -1.15355e-01
Si    1.08220e+01   2.67953e+00   2.68748e+00  1.94937e-01   8.63042e-03  -4.33226e-01
Si    2.60002e+00   2.08802e-01   2.60830e+00  1.10018e+00  -1.61766e+00   5.37716e-01
Si    1.27172e+00   1.39666e+00   1.17589e+00 -1.00823e+00  -1.70018e-02   2.57407e-01
Si    4.09497e+00   4.10755e+00   1.26473e+00 -1.51645e+00   2.55650e-03   7.23244e-01
Si    1.23428e+00   4.17607e+00   3.98143e+00  2.00849e-01   7.81115e-02   1.14933e+00
Si    3.94652e+00   1.57559e+00   4.02637e+00  4.07135e-01  -1.03629e+00  -5.64169e-01
Si    5.34539e+00   1.07350e+01   1.71910e-01  9.63727e-01   2.46144e-01  -3.00892e+00
Si    8.26984e+00   2.77853e+00  -2.58388e-02 -2.04000e+00  -1.30286e+00   1.58570e-02
Si    5.37207e+00   2.75303e+00   2.59508e+00  1.48811e+00  -2.50654e-01   4.97442e-01
Si    8.04882e+00   1.08489e+01   2.67412e+00  1.28970e+00  -7.28241e-01   3.29419e-01
Si    6.78484e+00   1.26852e+00   1.25533e+00  9.85197e-02   2.05621e+00   6.92820e-01
Si    9.50664e+00   4.08008e+00   1.36806e+00  8.32581e-01   3.90740e-01  -3.85033e-01
Si    6.85801e+00   4.10535e+00   3.98333e+00 -1.56575e+00  -1.00479e+00   5.77167e-02
Si    9.55640e+00   1.21729e+00   4.01315e+00  2.36614e-01   4.48008e-01   1.46910e-01
Si    1.09129e+01   5.37087e+00   1.07849e+01 -1.12783e+00   9.59488e-01   1.08385e+00
Si    2.64980e+00   8.06280e+00   1.10833e+01 -1.74727e-01   1.36035e+00  -2.06121e+00
Si   -5.46177e-02   8.16170e+00   2.82356e+00 -7.01473e-01  -1.11262e+00  -1.11992e+00
Si    2.71690e+00   5.45856e+00   2.70447e+00  9.91410e-01  -6.09371e-01   1.20954e-01
Si    1.29865e+00   6.74708e+00   1.45694e+00 -1.05795e+00  -2.00301e-01  -1.35932e-01
Si    4.00516e+00   9.46584e+00   1.43571e+00 -4.17592e-02  -3.44965e-01   2.20108e+00
Si    1.45011e+00   9.43122e+00   3.92141e+00  6.96995e-01   1.38142e+00   1.55615e+00
Si    4.29701e+00   6.64991e+00   4.06181e+00 -2.21430e+00   5.21658e-01   5.91866e-01
Si    5.49977e+00   5.42179e+00   1.09396e+01 -5.89510e-01   1.46621e+00  -6.14160e-01
Si    8.14484e+00   8.27858e+00   6.30817e-02 -8.57395e-01  -1.59067e+00  -7.64286e-01
Si    5.53238e+00   8.10981e+00   2.85416e+00 -5.85162e-01   1.38192e+00  -1.02999e+00
Si    8.10161e+00   5.42413e+00   2.62996e+00  1.39968e+00   4.20787e-01   1.15446e+00
Si    6.82186e+00   6.81140e+00   1.43116e+00 -1.77023e-01   8.86416e-01  -1.19019e+00
Si    9.56413e+00   9.52163e+00   1.32660e+00 -1.11892e+00  -3.39755e-02   1.78709e+00
Si    6.75065e+00   9.61134e+00   4.21645e+00 -3.04631e-01  -1.43951e-02  -1.18062e+00
Si    9.34026e+00   6.79873e+00   4.16328e+00  1.20209e+00  -9.32003e-02  -6.93297e-01
Si    1.10793e+01   1.08415e+01   5.42564e+00 -1.11299e+00  -2.85313e-01  -5.53252e-01
Si    2.62502e+00   2.86214e+00   5.37396e+00 -2.49957e-01   3.41373e-02   1.55919e+00
Si   -3.25599e-02   2.54963e+00   8.20089e+00 -9.29183e-01   1.75858e+00  -1.26834e+00
Si    2.72164e+00  -6.32135e-03   8.25888e+00  8.25159e-01  -1.45997e-01  -6.36587e-01
Si    1.38715e+00   1.37419e+00   6.89961e+00  1.12786e+00  -1.64198e-01  -1.41825e+00
Si    4.09960e+00   4.06933e+00   6.88114e+00 -6.54005e-02  -9.18949e-01  -3.18377e-01
Si    1.29747e+00   3.99275e+00   9.42995e+00  1.08595e-01   3.82060e-01  -3.89325e-02
Si    4.15032e+00   1.34332e+00   9.58982e+00 -1.02068e+00  -5.18996e-01   4.30682e-01
Si    5.34235e+00   2.19557e-01   5.39496e+00  3.40564e-01  -5.80395e-01   9.57256e-01
Si    8.24414e+00   2.73469e+00   5.23299e+00 -5.35852e-01  -9.82473e-01   5.57798e-01
Si    5.52862e+00   2.58919e+00   8.21251e+00 -3.59003e-01   1.61586e+00  -3.56889e-01
Si    8.16685e+00  -1.73893e-02   8.06619e+00 -8.91436e-01  -6.26432e-01   3.81478e-01
Si    6.94464e+00   1.42268e+00   6.75911e+00 -1.06882e+00  -9.01175e-03  -1.05196e+00
Si    9.49430e+00   3.98406e+00   6.66379e+00  1.53242e+00  -2.95721e-01   1.61057e+00
Si    6.76561e+00   4.09848e+00   9.57619e+00  1.27127e+00  -7.52234e-01  -1.14383e+00
Si    9.40693e+00   1.28275e+00   9.45241e+00  4.33128e-01   2.38720e-01   5.64694e-01
Si    1.08355e+01   5.53851e+00   5.56015e+00 -5.01605e-02  -3.24120e-01  -1.44905e+00
Si    2.87494e+00   8.13974e+00   5.35059e+00 -6.76524e-01  -6.72069e-01   3.37709e-01
Si    1.08671e+01   8.18898e+00   8.21467e+00 -1.18556e+00   1.63494e-01  -2.99740e-01
Si    2.67066e+00   5.39700e+00   8.18801e+00  5.10052e-01   1.02168e+00   3.04402e-01
Si    1.36328e+00   6.91061e+00   6.88623e+00  1.14379e+00  -6.33699e-01  -1.05653e+00
Si    4.12948e+00   9.50927e+00   6.80135e+00 -4.08202e-02   5.93161e-01  -4.25435e-02
Si    1.33391e+00   9.49969e+00   9.54803e+00  9.05086e-01  -8.84462e-01   8.72268e-01
Si    4.02733e+00   6.82347e+00   9.64594e+00  5.92492e-01  -1.07986e+00  -9.84483e-01
Si    5.50067e+00   5.33862e+00   5.50121e+00  3.71056e-01  -4.96957e-01  -5.49954e-01
Si    8.10180e+00   8.23483e+00   5.47474e+00  1.07876e-02  -3.85709e-01   5.67853e-01
Si    5.48840e+00   7.99530e+00   8.07091e+00 -1.49315e+00   8.29578e-01   1.09344e+00
Si    8.24186e+00   5.30703e+00   8.09598e+00 -1.30093e+00   9.20791e-01   7.53486e-01
Si    6.83105e+00   6.70268e+00   6.76659e+00  1.07083e+00  -5.54176e-02   1.78489e-01
Si    9.55693e+00   9.57407e+00   6.73845e+00  7.43889e-01  -7.49597e-01   3.00568e-01
Si    6.72050e+00   9.44758e+00   9.41347e+00  3.74519e-01   9.06678e-01   9.95269e-01
Si    9.42066e+00   6.81757e+00   9.54660e+00  9.66981e-01  -3.74491e-01  -3.23875e-01
