64
Lattice="10.862 0 0 0 10.862 0 0 0 10.862 " PBC="1 1 1" Properties=species:S:1:pos:R:3:force:R:3 Energy="-268.1986"
Si    6.08363e-02   5.02259e-02  -4.14915e-02  5.45134e-01   5.19574e-01   1.22643e+00
Si    2.74590e+00   2.77406e+00  -1.35619e-01 -3.81296e-01  -3.12825e-01   1.59559e+00
Si    1.07150e+01   2.88135e+00   2.80863e+00  3.81712e-02  -1.39325e-01  -3.68832e-01
Si    2.67685e+00   1.94521e-01   2.85551e+00 -1.41414e+00  -4.07033e-01  -1.11323e+00
Si    1.25295e+00   1.66924e+00   1.47118e+00  1.30051e+00  -2.23999e+00  -1.45537e+00
Si    4.15624e+00   4.03090e+00   1.31483e+00  2.49469e-01   4.05988e-01  -8.79176e-01
Si    1.19684e+00   4.23485e+00   4.06245e+00  8.91201e-01   2.90104e-01   4.41065e-01
Si    3.93994e+00   1.59267e+00   4.14899e+00  1.64648e+00  -2.20041e+00   1.89096e-01
Si    5.37827e+00   1.08316e+01   6.48203e-02  8.10040e-01  -3.27145e-01   1.24890e-01
Si    8.20708e+00   2.66683e+00   2.41047e-02 -9.55011e-02  -9.55303e-01  -3.48948e-01
Si    5.39927e+00   2.63251e+00   2.70141e+00  1.19801e+00   1.13472e+00   3.66881e-01
Si    8.20730e+00   1.07432e+01   2.86590e+00  2.25500e-01   1.05275e+00  -1.88162e+00
Si    6.84419e+00   1.28361e+00   1.42897e+00  1.01626e-01  -4.23788e-01  -1.54487e-01
Si    9.44760e+00   4.11268e+00   1.32444e+00 -1.80096e-01   9.23283e-01   2.11392e-01
Si    6.93045e+00   4.01152e+00   4.01971e+00 -1.61499e+00  -8.64380e-01   5.63440e-01
Si    9.55435e+00   1.35290e+00   4.10649e+00 -3.79841e-01  -3.03229e-01   6.79236e-01
Si    1.08061e+01   5.50755e+00   1.08304e+01  6.44117e-01  -1.62975e+00  -3.26954e-01
Si    2.71977e+00   8.11136e+00   1.07780e+01 -1.58485e-02  -3.59713e-01   1.27540e+00
Si    9.29575e-02   8.07370e+00   2.66779e+00  3.92600e-01   4.91610e-01   9.47982e-01
Si    2.76718e+00   5.35148e+00   2.61824e+00 -7.81423e-01  -2.87352e-01   7.75301e-01
Si    1.40527e+00   6.68281e+00   1.32635e+00  1.67781e-01   1.09321e+00  -7.08520e-01
Si    3.86404e+00   9.57975e+00   1.39968e+00  5.83215e-01   4.62781e-03  -4.93698e-01
Si    1.37113e+00   9.51147e+00   4.13966e+00  9.76798e-02  -4.31496e-01  -6.59288e-01
Si    4.05138e+00   6.68220e+00   4.00039e+00  3.23298e-01   5.89373e-02   5.84417e-01
Si    5.61177e+00   5.49844e+00   1.08970e+01 -1.64973e+00  -1.47271e+00   5.25295e-02
Si    8.29085e+00   8.16224e+00   5.69156e-02 -1.92611e-01  -5.25529e-02   2.82673e-01
Si    5.25112e+00   8.12704e+00   2.59464e+00 -1.90436e-02   7.01515e-02   4.31398e-01
Si    8.03746e+00   5.47576e+00   2.67719e+00  1.20229e+00  -1.38700e-01  -4.80097e-01
Si    6.76678e+00   6.88133e+00   1.37968e+00  8.24406e-01   4.63450e-01  -4.04426e-01
Si    9.69213e+00   9.52618e+00   1.43196e+00 -1.16144e+00   1.95839e-01  -6.99636e-01
Si    6.62044e+00   9.46076e+00   3.88672e+00 -3.25737e-01   5.84672e-01   2.38315e+00
Si    9.39466e+00   6.86839e+00   3.94769e+00  5.37552e-01  -1.49577e-01   7.29670e-01
Si    1.08570e+01   1.08195e+01   5.48445e+00 -4.53693e-01   4.59843e-02   3.41463e-02
Si    2.55079e+00   2.80954e+00   5.39342e+00 -4.64674e-01   8.97908e-01   1.31681e+00
Si    1.46690e-02   2.62208e+00   8.08657e+00  3.87231e-01   6.74509e-01   2.92484e-01
Si    2.81599e+00  -7.68654e-02   8.10638e+00 -4.92877e-01  -1.78689e-01   2.07983e-01
Si    1.36216e+00   1.31228e+00   6.79940e+00  7.48032e-01  -3.57339e-01  -3.90542e-01
Si    4.02482e+00   4.04499e+00   6.80515e+00  7.94027e-02   8.91048e-02   2.57692e-01
Si    1.30183e+00   4.03376e+00   9.43225e+00 -3.49746e-01   8.06880e-01   6.88521e-01
Si    4.11214e+00   1.31994e+00   9.51533e+00 -5.83841e-01  -4.63436e-01  -1.14980e-01
Si    5.33453e+00   2.77584e-02   5.46489e+00  9.82347e-01   6.96873e-01  -1.33832e+00
Si    8.25761e+00   2.70646e+00   5.50456e+00 -3.08432e-01   1.37908e-01  -6.08221e-01
Si    5.42003e+00   2.67685e+00   8.22215e+00  4.97491e-01   6.73036e-01  -8.95937e-01
Si    8.09319e+00   1.03851e-02   8.22705e+00  2.35986e-01  -4.65672e-01  -1.07232e+00
Si    6.84140e+00   1.38081e+00   6.82365e+00 -1.09362e+00  -3.34483e-01  -1.00499e-01
Si    9.66164e+00   4.07302e+00   6.77378e+00 -1.56198e+00  -1.63309e-01   4.71168e-01
Si    6.82238e+00   4.01320e+00   9.59175e+00  7.73092e-01   5.41613e-01  -1.17158e+00
Si    9.55524e+00   1.28986e+00   9.39855e+00 -4.88905e-01   8.02465e-01   1.58921e+00
Si    1.07153e+01   5.60589e+00   5.47353e+00  2.09142e-01  -8.47125e-01  -1.83756e+00
Si    2.68807e+00   8.01512e+00   5.41432e+00  4.48909e-01   4.65994e-01   3.64192e-01
Si    1.08047e+01   8.18919e+00   8.15018e+00  8.96406e-02   3.15049e-01  -1.04061e+00
Si    2.70165e+00   5.45383e+00   8.23864e+00 -1.23601e-01  -3.14931e-01  -1.46446e+00
Si    1.23230e+00   6.75085e+00   6.80163e+00  1.62584e+00   1.04205e+00   1.05215e+00
Si    4.19735e+00   9.36413e+00   6.75702e+00 -8.00637e-01  -3.49527e-01   7.45455e-01
Si    1.36358e+00   9.45654e+00   9.50835e+00  2.53215e-01   8.65364e-01  -8.54629e-01
Si    4.16501e+00   6.71757e+00   9.55483e+00  6.64958e-01   1.25220e+00  -8.68782e-01
Si    5.46978e+00   5.29728e+00   5.37460e+00 -1.09442e-01   7.87021e-01   2.84538e-01
Si    8.05878e+00   8.21392e+00   5.31055e+00 -7.17158e-01  -5.77487e-01   1.14631e-02
Si    5.70601e+00   8.10160e+00   8.17749e+00 -2.64003e+00  -1.99017e-01   3.65983e-01
Si    8.26393e+00   5.39212e+00   8.14830e+00 -1.31247e+00  -6.60281e-01  -2.87724e-01
Si    6.84034e+00   6.74609e+00   6.75128e+00  8.20466e-01  -9.37862e-01  -7.56952e-01
Si    9.33256e+00   9.50452e+00   6.76073e+00  1.22569e+00   2.53107e-01   4.73157e-01
Si    6.89494e+00   9.47604e+00   9.60296e+00 -6.99606e-01   5.54008e-01   5.77287e-01
Si    9.53119e+00   6.80767e+00   9.42224e+00 -4.08111e-01   3.54441e-01   1.18464e+00
