64
Lattice="10.862 0 0 0 10.862 0 0 0 10.862 " PBC="1 1 1" Properties=species:S:1:pos:R:3:force:R:3 Energy="-268.32555"
Si   -2.05707e-02  -1.01766e-02   6.31630e-02 -1.49807e+00   6.88670e-01  -6.35630e-01
Si    2.72349e+00   2.66817e+00   1.37196e-01  5.45606e-01  -6.03971e-02  -1.80527e+00
Si    1.08086e+01   2.72414e+00   2.71453e+00  4.18191e-01  -7.56814e-01  -1.28461e-01
Si    2.65382e+00  -1.12162e-02   2.62457e+00 -1.64379e-01  -1.13325e+00   8.02610e-01
Si    1.31571e+00   1.32434e+00   1.34834e+00 -4.27396e-01   7.50878e-01   7.90353e-01
Si    4.16349e+00   4.06984e+00   1.26266e+00 -9.55865e-01   3.00022e-01   2.45213e+00
Si    1.26665e+00   4.04152e+00   4.08635e+00  9.46662e-01   9.76401e-01  -9.71320e-01
Si    4.08008e+00   1.26333e+00   3.86220e+00  2.08921e-01   4.48492e-01   1.97880e+00
Si    5.39322e+00   1.08172e+01  -1.05506e-01  1.27155e+00  -5.27001e-01  -1.19527e+00
Si    8.19294e+00   2.70340e+00  -3.85420e-02 -7.45758e-01  -1.29720e-01  -1.01650e-01
Si    5.47206e+00   2.60488e+00   2.63135e+00 -1.07485e+00   5.00310e-01  -1.30614e+00
Si    8.08088e+00   1.10069e+01   2.77892e+00  1.61700e-01  -1.00737e+00  -9.99430e-01
Si    6.70979e+00   1.30755e+00   1.18128e+00  1.46614e+00   4.38607e-01   9.45048e-01
Si    9.45021e+00   4.06932e+00   1.39657e+00 -4.62126e-01  -7.11751e-01   4.23588e-01
Si    6.68021e+00   3.96857e+00   3.96270e+00  1.39417e+00   1.25626e+00   4.99853e-01
Si    9.59932e+00   1.29584e+00   4.11020e+00 -8.38039e-01   1.01061e+00  -7.20859e-01
Si    1.09236e+01   5.33228e+00   1.11219e+01 -3.94516e-01   1.98604e+00  -1.43357e+00
Si    2.66317e+00   8.34343e+00   1.09010e+01  5.15691e-01  -1.82202e+00  -4.79627e-01
Si   -7.82355e-02   8.16014e+00   2.75666e+00  1.19977e+00   7.84349e-01  -1.06033e+00
Si    2.69712e+00   5.50836e+00   2.74831e+00  1.11950e+00  -1.83360e+00  -2.29965e-02
Si    1.45639e+00   6.82277e+00   1.39280e+00 -1.57933e+00   1.21124e+00   4.56936e-01
Si    4.13331e+00   9.59178e+00   1.31821e+00 -5.23834e-01  -6.41646e-01   7.70364e-01
Si    1.31386e+00   9.50401e+00   4.16289e+00  1.62680e-01   5.12580e-01  -1.03386e+00
Si    4.04911e+00   6.90050e+00   4.06958e+00  5.84668e-01  -1.73444e-01   9.37818e-02
Si    5.42852e+00   5.50853e+00   1.08779e+01  7.42972e-01  -6.08866e-01  -8.52138e-01
Si    8.13212e+00   8.08567e+00   7.60119e-02  3.21948e-01   3.56161e-01  -7.51895e-01
Si    5.49745e+00   8.26305e+00   2.74594e+00 -9.33707e-01   1.72052e-01   3.13784e-01
Si    8.06499e+00   5.42132e+00   2.68218e+00  3.92458e-01   1.29056e-01   9.81684e-01
Si    6.74934e+00   6.84597e+00   1.43946e+00 -1.22298e-01  -4.37948e-01  -6.81627e-01
Si    9.38280e+00   9.56386e+00   1.38231e+00  5.58467e-01  -1.91908e-01   7.54427e-01
Si    6.84532e+00   9.58397e+00   4.15562e+00 -4.26664e-01   7.95773e-03  -6.34857e-01
Si    9.48847e+00   6.84434e+00   4.04382e+00 -6.77550e-01  -1.84276e+00   1.05453e-01
Si    1.08740e+01   1.09089e+01   5.52372e+00  4.83015e-01  -1.03522e+00   3.34666e-01
Si    2.76223e+00   2.71201e+00   5.24896e+00 -3.96197e-01  -6.16510e-01   4.60439e-01
Si   -5.74400e-02   2.67901e+00   8.15686e+00  1.45460e+00   1.25281e+00   1.32327e+00
Si    2.61563e+00   5.24260e-02   8.22413e+00  1.20602e+00   1.39775e-01  -1.65319e+00
Si    1.36113e+00   1.50852e+00   6.77506e+00  6.93259e-01  -1.17846e+00  -6.41607e-02
Si    3.98487e+00   4.12355e+00   6.62184e+00  1.17048e+00   4.02228e-02   5.01267e-01
Si    1.33894e+00   4.08186e+00   9.73781e+00  1.08402e-01  -1.30254e+00  -2.51873e+00
Si    4.10862e+00   1.37567e+00   9.46750e+00 -7.06200e-01   9.63499e-01  -4.18219e-02
Si    5.45965e+00   4.79544e-02   5.45118e+00 -5.66611e-01   2.44679e-01   2.45543e-01
Si    8.22855e+00   2.77421e+00   5.26085e+00 -8.14084e-01  -6.60327e-01   1.52200e+00
Si    5.42631e+00   2.85569e+00   8.05152e+00 -4.52932e-01  -6.49381e-01   4.98500e-01
Si    8.27273e+00  -1.07357e-01   8.01053e+00 -1.38341e+00   3.29681e-01   8.57243e-01
Si    6.85151e+00   1.47981e+00   6.79940e+00  4.78989e-01  -8.56989e-01  -1.03795e+00
Si    9.50327e+00   3.98802e+00   6.83122e+00  5.97510e-01   8.26417e-01  -1.79557e+00
Si    6.85135e+00   4.08222e+00   9.47224e+00 -3.80712e-01   1.00387e+00   2.06192e-01
Si    9.48291e+00   1.33427e+00   9.44254e+00  3.42872e-01  -1.04106e+00   7.42467e-01
Si    1.08383e+01   5.43899e+00   5.42054e+00 -5.92875e-01  -1.61784e-01   5.06094e-01
Si    2.67019e+00   8.16484e+00   5.49712e+00  6.18547e-01   6.46999e-02  -3.48134e-01
Si    1.09721e+01   8.09039e+00   8.29721e+00 -3.17715e-01  -3.37763e-01  -9.30634e-01
Si    2.63279e+00   5.36412e+00   8.08573e+00 -2.76256e-01  -6.18719e-01   9.90616e-01
Si    1.36410e+00   6.76099e+00   6.78044e+00 -6.23830e-01   1.54703e-01   4.18443e-01
Si    4.09800e+00   9.47104e+00   6.82458e+00 -3.62441e-01   6.47917e-01   9.22408e-01
Si    1.27814e+00   9.61345e+00   9.55175e+00  6.26338e-01  -6.25003e-01   1.39480e-01
Si    3.87189e+00   6.66979e+00   9.56526e+00  7.28849e-01   1.61778e+00   1.41135e-01
Si    5.47959e+00   5.46016e+00   5.33318e+00 -5.35809e-01   1.00099e-01   4.50385e-01
Si    8.15453e+00   8.13925e+00   5.38022e+00  4.17201e-01  -9.09113e-02   1.09074e+00
Si    5.38257e+00   7.99469e+00   8.26320e+00 -7.86277e-02  -4.12832e-01  -1.72407e+00
Si    8.30160e+00   5.40267e+00   8.11345e+00 -5.80427e-01   5.12271e-01   1.61378e+00
Si    6.91990e+00   6.72337e+00   6.79850e+00 -1.48702e+00   4.18958e-01  -1.38529e-01
Si    9.63780e+00   9.30165e+00   6.80278e+00 -2.07662e-01   1.08105e+00  -4.33935e-01
Si    6.84123e+00   9.34022e+00   9.40884e+00  6.46792e-02   1.59421e+00   9.08907e-01
Si    9.62275e+00   6.76315e+00   9.63973e+00 -4.14668e-01  -1.05633e+00   2.59271e-01
