64
Lattice="10.862 0 0 0 10.862 0 0 0 10.862 " PBC="1 1 1" Properties=species:S:1:pos:R:3:force:R:3 Energy="-268.30325"
Si   -1.73669e-02   5.84325e-02  -9.07171e-03  4.91995e-01  -5.54820e-01   5.97859e-01
Si    2.80914e+00   2.68002e+00   9.90076e-02 -6.25584e-01  -8.28382e-02  -1.44505e+00
Si    1.09162e+01   2.75503e+00   2.68021e+00 -9.44946e-01   1.76547e+00   4.32704e-01
Si    2.70930e+00   6.10600e-02   2.66336e+00 -9.57455e-01  -2.72088e-01   1.02499e+00
Si    1.34949e+00   1.40725e+00   1.35171e+00  5.64233e-02  -4.88376e-01  -1.81936e-01
Si    4.11776e+00   4.13282e+00   1.27704e+00  1.07889e+00  -4.82510e-01   8.85666e-01
Si    1.40545e+00   4.29529e+00   4.09092e+00 -9.53134e-01  -1.81004e+00  -2.23712e-01
Si    3.90679e+00   1.51464e+00   4.03575e+00  2.59761e-02  -1.25285e+00   1.72271e+00
Si    5.43652e+00   1.06897e+01  -2.00557e-02  3.80891e-01   6.69007e-01  -6.63915e-01
Si    8.11515e+00   2.53696e+00  -7.59118e-02 -9.09968e-01   1.05553e+00   5.74910e-01
Si    5.33555e+00   2.58363e+00   2.65931e+00  8.54719e-01   1.57532e+00  -3.99002e-01
Si    8.12788e+00   1.07894e+01   2.80087e+00  2.76352e-01   3.96591e-01   4.52687e-02
Si    6.70804e+00   1.18050e+00   1.42675e+00  7.44041e-01   4.14670e-01  -1.24786e+00
Si    9.32805e+00   4.10906e+00   1.25608e+00  1.91754e+00  -7.74486e-01   1.74842e-01
Si    6.87592e+00   3.81451e+00   4.00181e+00 -4.04175e-01   1.50606e+00  -7.43051e-01
Si    9.57093e+00   1.39395e+00   4.08968e+00  4.00493e-02  -1.19406e+00  -1.13821e-01
Si    1.08597e+01   5.43279e+00   1.07858e+01  8.42579e-01   4.41425e-02   1.32521e+00
Si    2.76392e+00   8.15991e+00   1.09168e+01 -5.07254e-01  -1.36279e-01   1.17201e-01
Si    2.46974e-02   8.28915e+00   2.77803e+00 -2.75615e-01  -1.27350e+00  -3.19142e-01
Si    2.88103e+00   5.44739e+00   2.72814e+00 -1.37102e+00   2.30558e-01  -6.49670e-01
Si    1.43111e+00   6.82814e+00   1.45639e+00 -9.57551e-01  -4.27120e-01  -6.56788e-01
Si    4.04588e+00   9.53262e+00   1.38720e+00  3.19507e-01  -6.19771e-01   5.53120e-01
Si    1.36036e+00   9.55939e+00   4.15374e+00  1.39441e+00  -1.95772e-01  -8.93652e-01
Si    4.08594e+00   6.68987e+00   4.16023e+00  1.24374e+00   3.25684e-01  -7.19184e-01
Si    5.52533e+00   5.51027e+00   1.08489e+01 -9.15234e-01  -4.65067e-01  -4.80742e-01
Si    8.20514e+00   8.10346e+00  -1.10928e-01 -3.40524e-01   2.35068e-01   1.97727e+00
Si    5.33643e+00   8.21162e+00   2.87738e+00 -6.88041e-01  -7.99086e-01  -1.12687e+00
Si    8.09103e+00   5.50853e+00   2.65562e+00 -3.28271e-01  -1.38691e-01   1.34678e+00
Si    6.63236e+00   6.91535e+00   1.42952e+00  1.92673e+00   1.41289e-01  -6.96385e-01
Si    9.50971e+00   9.53522e+00   1.34527e+00 -3.88837e-01  -2.30436e-01  -2.39917e-01
Si    6.69035e+00   9.47433e+00   4.14347e+00 -1.53706e-02   2.09397e+00  -2.03649e-01
Si    9.43289e+00   6.94898e+00   4.14461e+00 -5.55923e-01  -7.28180e-02  -1.62193e+00
Si    1.08830e+01   1.08076e+01   5.49372e+00 -2.68891e-01   1.49254e+00  -1.93102e-01
Si    2.63268e+00   2.87898e+00   5.59139e+00 -1.84743e-01  -1.04823e+00  -1.24784e+00
Si   -2.87099e-02   2.72880e+00   8.17765e+00  9.04180e-01  -5.63275e-01  -1.33970e-01
Si    2.69364e+00  -6.34716e-02   8.10362e+00  1.56948e+00  -1.02501e+00   8.28052e-01
Si    1.36023e+00   1.28910e+00   6.89372e+00 -7.08975e-01   1.42811e+00  -1.08780e+00
Si    4.15632e+00   4.11450e+00   6.78711e+00 -7.63522e-01  -3.52531e-01   1.70841e+00
Si    1.42446e+00   3.96278e+00   9.53587e+00 -3.55106e-01   9.47997e-01   1.26174e-01
Si    4.06177e+00   1.28400e+00   9.51837e+00  7.07282e-01   1.73254e-01  -9.22334e-02
Si    5.30026e+00   2.94779e-02   5.43170e+00  3.88862e-01   8.63482e-01  -1.32424e+00
Si    8.18948e+00   2.61711e+00   5.49058e+00 -4.51406e-02   4.23722e-01  -1.63769e-02
Si    5.50195e+00   2.74400e+00   8.21114e+00 -1.46852e+00  -1.66011e-01  -3.76145e-01
Si    8.07534e+00   1.28834e-01   8.07311e+00  8.40379e-01  -2.02760e+00   6.88052e-02
Si    6.65953e+00   1.37207e+00   6.75839e+00  6.14317e-01   1.94787e-01  -8.43246e-02
Si    9.52582e+00   4.06383e+00   6.80709e+00 -5.05361e-02   4.43110e-02  -8.32759e-01
Si    6.86285e+00   4.16410e+00   9.42683e+00  1.78782e-01  -1.17837e+00   1.61158e+00
Si    9.54584e+00   1.28983e+00   9.43482e+00 -7.30017e-01   7.26091e-01   1.30285e-01
Si    1.07378e+01   5.54064e+00   5.38118e+00  6.31647e-01  -9.68417e-01   5.34646e-01
Si    2.75458e+00   8.05222e+00   5.37232e+00 -3.57688e-01   1.14210e+00   8.08803e-01
Si    1.09173e+01   8.28182e+00   8.12818e+00  1.19433e+00  -1.56756e+00  -4.33350e-01
Si    2.67316e+00   5.46216e+00   8.17673e+00  8.15493e-01  -8.46210e-01  -3.13228e-01
Si    1.38042e+00   6.71963e+00   6.68048e+00 -8.19461e-01   1.47548e+00   1.48643e+00
Si    4.20519e+00   9.39582e+00   6.71909e+00 -2.79651e+00   4.04087e-01   5.75046e-01
Si    1.38555e+00   9.52032e+00   9.61897e+00  3.96445e-02   2.40910e-01  -9.21050e-01
Si    4.05023e+00   6.80572e+00   9.53544e+00  2.85941e-01  -2.89087e-01  -2.76085e-01
Si    5.47545e+00   5.20438e+00   5.30674e+00  8.62467e-01   1.20914e+00   4.83463e-01
Si    8.03131e+00   8.29464e+00   5.46276e+00  5.36490e-01  -2.37457e+00   1.39341e+00
Si    5.40721e+00   8.01570e+00   8.05852e+00  9.84608e-01   4.69375e-01   1.36729e+00
Si    8.23001e+00   5.43184e+00   8.11779e+00  2.27633e-01   9.29477e-01   1.48290e-02
Si    6.73546e+00   6.64277e+00   6.77931e+00  8.56268e-01   4.29570e-01  -1.40206e+00
Si    9.52311e+00   9.50784e+00   6.79863e+00 -1.35872e+00   1.11687e+00   1.98906e-01
Si    6.89076e+00   9.40981e+00   9.40352e+00 -1.46102e+00   4.92954e-01  -4.74321e-01
Si    9.63437e+00   6.87298e+00   9.42612e+00 -7.23907e-01  -9.80138e-01  -2.79500e-01
