64
Lattice="10.862 0 0 0 10.862 0 0 0 10.862 " PBC="1 1 1" Properties=species:S:1:pos:R:3:force:R:3 Energy="-267.96599"
Si    9.60151e-02  -2.30115e-02   5.06987e-02 -1.24318e+00   4.10342e-01  -4.31024e-01
Si    2.70479e+00   2.72276e+00   6.39333e-02  6.31156e-01  -5.20414e-01  -8.29138e-01
Si    1.08841e+01   2.73426e+00   2.71786e+00 -5.02987e-01   6.76153e-01   6.58629e-01
Si    2.73683e+00   7.23692e-02   2.68175e+00 -1.37224e+00  -5.91213e-01   1.45625e+00
Si    1.34753e+00   1.40289e+00   1.36762e+00  2.24974e-01  -1.98307e-01   3.22088e-01
Si    4.15742e+00   4.01489e+00   1.32268e+00 -6.02202e-01  -3.53961e-01   4.36114e-01
Si    1.41139e+00   4.08288e+00   4.13452e+00 -3.82843e-01  -2.86886e-01  -6.47633e-01
Si    4.08393e+00   1.29006e+00   4.14688e+00 -1.00164e-01   5.99549e-02  -1.06279e+00
Si    5.40459e+00   1.09324e+01   8.79823e-02  9.46251e-01  -6.55798e-01   1.52866e-01
Si    8.28921e+00   2.67964e+00   8.05581e-03 -1.40028e+00   1.01254e+00   2.09737e-01
Si    5.36163e+00   2.74071e+00   2.84324e+00  4.59343e-01   2.12723e-01  -8.17765e-03
Si    8.03469e+00   1.08108e+01   2.77081e+00  1.13632e+00   5.51188e-01  -7.51479e-02
Si    6.75235e+00   1.47596e+00   1.51328e+00  6.09590e-01  -8.25471e-01  -1.52091e+00
Si    9.56408e+00   4.18275e+00   1.35123e+00 -1.46869e-02  -2.42990e-02   4.22040e-02
Si    6.76747e+00   4.12252e+00   4.12438e+00 -2.59617e-01   2.94722e-01  -7.85286e-02
Si    9.41803e+00   1.44103e+00   4.10923e+00 -3.93863e-01  -5.31016e-01  -2.73019e-01
Si    1.08582e+01   5.57280e+00   1.07245e+01 -4.41808e-01  -1.14397e+00   1.93476e-01
Si    2.81618e+00   8.16579e+00   1.08420e+01 -3.21660e-01  -1.14426e+00   1.96334e-02
Si    6.13248e-02   8.04301e+00   2.76534e+00 -1.93081e-02   1.46225e+00  -2.25217e-01
Si    2.70014e+00   5.33851e+00   2.59262e+00  1.69097e-02   7.12116e-01   9.94844e-01
Si    1.35893e+00   6.74548e+00   1.28366e+00  7.55376e-01   9.12305e-01   7.96389e-02
Si    4.02413e+00   9.54949e+00   1.38644e+00  1.47813e+00  -1.09071e+00   3.45991e-01
Si    1.25214e+00   9.59968e+00   4.18745e+00  1.75134e+00  -9.35456e-01  -2.28423e+00
Si    3.84364e+00   6.81967e+00   4.12700e+00  1.14505e+00  -6.96729e-01  -1.52775e+00
Si    5.57304e+00   5.11993e+00   1.07473e+01 -8.10857e-01   1.93105e+00  -2.60926e-01
Si    8.12576e+00   8.24395e+00  -3.86359e-02 -7.30265e-01  -8.60433e-01   1.71149e+00
Si    5.39508e+00   7.95780e+00   2.70773e+00 -8.54247e-01   3.21428e-01  -1.17386e+00
Si    8.16479e+00   5.52088e+00   2.80496e+00  2.29429e-01  -1.46046e+00  -7.41511e-01
Si    6.79183e+00   6.56985e+00   1.24963e+00  2.12940e-01   2.07476e+00   1.89548e-01
Si    9.52367e+00   9.47275e+00   1.44796e+00  1.10633e-01   3.05544e-01  -4.67096e-01
Si    6.75333e+00   9.30740e+00   3.99676e+00  7.12594e-02   5.36518e-01  -1.85203e-01
Si    9.52633e+00   6.84135e+00   4.12663e+00 -1.59884e-01  -3.27210e-01   1.51336e-01
Si    1.07368e+01   1.08445e+01   5.41187e+00 -8.53175e-01   1.05317e+00   1.41987e+00
Si    2.76951e+00   2.65100e+00   5.43848e+00 -8.09421e-01   3.01883e-01   9.59170e-01
Si    1.30844e-02   2.90506e+00   8.07704e+00  1.85409e-01  -1.22570e+00   1.41290e+00
Si    2.63546e+00   2.60878e-02   8.13891e+00  1.26230e+00   3.98620e-01  -6.30919e-01
Si    1.23028e+00   1.38350e+00   6.83155e+00  7.22513e-01  -1.38164e-01  -1.17253e+00
Si    4.24839e+00   3.99397e+00   6.72045e+00 -7.23707e-01  -2.64381e-01   5.16630e-01
Si    1.45111e+00   4.08247e+00   9.52154e+00 -3.22023e-01   1.09323e+00  -7.51019e-01
Si    4.03232e+00   1.26450e+00   9.56225e+00 -1.97192e-01   1.33766e+00  -4.69398e-01
Si    5.43132e+00  -1.96327e-01   5.27372e+00 -9.37973e-02   6.82085e-01   9.16528e-01
Si    7.96801e+00   2.69991e+00   5.55378e+00  1.79913e+00   8.25823e-01  -9.23395e-01
Si    5.50805e+00   2.50347e+00   8.13258e+00 -7.25786e-01   5.31795e-01  -4.51479e-01
Si    8.15954e+00   2.32997e-02   8.16213e+00  2.23766e-01  -6.31096e-01  -8.67291e-01
Si    6.72838e+00   1.15194e+00   6.66674e+00  7.81924e-02   1.75889e-02   1.07753e+00
Si    9.45890e+00   4.14811e+00   6.82803e+00 -6.81292e-01   6.52577e-01  -1.40746e+00
Si    6.92204e+00   3.98890e+00   9.27791e+00  3.58454e-01  -1.28533e+00   1.34013e+00
Si    9.59732e+00   1.42503e+00   9.44567e+00  6.51555e-01  -9.53177e-01   3.06992e-01
Si    1.08925e+01   5.50805e+00   5.45001e+00  3.08674e-01  -4.59216e-01   8.08198e-01
Si    2.69884e+00   8.26298e+00   5.48552e+00 -9.21603e-01  -1.84406e-01   1.79196e-01
Si    1.08910e+01   8.29833e+00   8.21210e+00 -3.35792e-02  -1.45440e+00  -6.70324e-01
Si    2.89837e+00   5.38431e+00   8.08748e+00 -6.44062e-01  -5.37350e-01   4.30330e-01
Si    1.48148e+00   6.81523e+00   6.88051e+00 -1.25176e+00   4.94573e-01  -1.67324e-01
Si    4.09082e+00   9.55111e+00   6.77704e+00 -5.49123e-02  -4.61982e-01   1.23357e+00
Si    1.49759e+00   9.56785e+00   9.54669e+00 -1.32525e+00  -6.81964e-01   3.04581e-01
Si    4.18994e+00   6.69953e+00   9.48668e+00  1.31420e-02  -2.20381e-01   1.25580e+00
Si    5.35749e+00   5.54963e+00   5.36597e+00  2.19073e-01  -6.95729e-01   3.10496e-01
Si    8.10243e+00   8.14081e+00   5.42281e+00 -8.79902e-01  -1.42060e+00  -7.71480e-01
Si    5.44593e+00   8.16378e+00   8.24810e+00 -6.56278e-01   7.49334e-01  -1.36094e+00
Si    8.05163e+00   5.58423e+00   8.04731e+00  7.62716e-01  -3.55361e-01   2.00270e-01
Si    6.65689e+00   6.88938e+00   6.75515e+00  4.61444e-01  -1.66481e-01  -2.45063e-01
Si    9.37373e+00   9.36461e+00   6.70775e+00  1.72570e+00   2.74145e+00   1.89373e+00
Si    6.78100e+00   9.55770e+00   9.50191e+00 -3.42385e-01   9.06329e-01   8.69296e-01
Si    9.36424e+00   6.93479e+00   9.46532e+00  1.57545e+00  -4.77390e-01  -7.18282e-01
