64
Lattice="10.862 0 0 0 10.862 0 0 0 10.862 " PBC="1 1 1" Properties=species:S:1:pos:R:3:force:R:3 Energy="-268.42294"
Si   -3.74637e-02  -5.35805e-02   2.41232e-02 -6.42248e-01   2.51297e-01   4.50133e-01
Si    2.66155e+00   2.80613e+00   1.16989e-01 -1.02830e+00  -4.12330e-01  -5.06102e-01
Si    1.08565e+01   2.75492e+00   2.67940e+00 -3.79841e-01   1.28266e+00  -5.34155e-01
Si    2.71439e+00  -5.14292e-02   2.62463e+00 -1.12924e+00   6.02008e-01   5.06368e-01
Si    1.21533e+00   1.38259e+00   1.35672e+00  1.83551e+00  -6.18259e-01  -7.98572e-02
Si    3.98354e+00   4.22202e+00   1.35083e+00  1.40116e+00  -1.58066e+00   5.47507e-01
Si    1.33545e+00   4.09776e+00   4.03689e+00  5.71160e-01   1.47886e-01  -6.54542e-02
Si    4.10099e+00   1.26740e+00   3.96243e+00 -6.90800e-01   1.54008e+00   5.13712e-01
Si    5.40503e+00   1.08910e+01  -1.22269e-01  1.37106e+00   5.84725e-01   1.11371e+00
Si    8.14130e+00   2.58922e+00  -8.27117e-02  2.10103e-01   1.00748e+00  -6.91606e-01
Si    5.43731e+00   2.78379e+00   2.70041e+00 -8.43247e-01  -3.80231e-01  -9.26517e-01
Si    8.19786e+00   1.09890e+01   2.74846e+00  1.55606e-01  -2.06080e-01   4.23714e-01
Si    6.87463e+00   1.45087e+00   1.34392e+00 -2.08371e+00  -1.59034e+00  -8.16176e-03
Si    9.32582e+00   3.97739e+00   1.29107e+00  1.21430e+00   8.29725e-01   1.13661e+00
Si    6.76641e+00   4.01264e+00   4.09593e+00  4.26726e-01   1.28808e+00   8.50404e-01
Si    9.68482e+00   1.45974e+00   4.05751e+00 -1.80227e+00  -1.69982e+00   1.29844e+00
Si    1.07459e+01   5.40910e+00   1.09298e+01  3.10357e-02  -1.05073e-01  -1.41871e-01
Si    2.67359e+00   8.14594e+00   1.08831e+01  4.34769e-01  -7.02416e-01   8.62785e-01
Si    6.45187e-02   8.04242e+00   2.73988e+00  5.68252e-02   1.48997e+00   6.32390e-01
Si    2.70618e+00   5.50702e+00   2.71980e+00 -1.38478e-01   4.40412e-01   9.50545e-01
Si    1.31051e+00   6.72999e+00   1.37965e+00  4.37159e-01   3.20918e-01  -9.04434e-01
Si    4.07197e+00   9.56669e+00   1.25068e+00  3.18934e-01  -7.86903e-01   1.32901e-01
Si    1.36156e+00   9.49696e+00   4.13135e+00  8.69859e-01  -7.87710e-01  -1.25649e+00
Si    4.03506e+00   7.02561e+00   4.01730e+00 -1.48000e-02  -1.31500e+00   6.19471e-01
Si    5.45501e+00   5.29942e+00   1.07887e+01 -8.78872e-02   9.74301e-01   3.70521e-01
Si    8.09744e+00   8.24757e+00   1.43579e-01  1.78465e-01  -1.68456e+00   8.40033e-01
Si    5.46502e+00   8.23420e+00   2.62855e+00 -1.06142e+00  -2.12782e-01  -4.03999e-01
Si    8.11824e+00   5.44864e+00   2.74498e+00  3.40836e-01  -1.38427e+00   2.62947e-01
Si    6.67991e+00   6.64631e+00   1.43254e+00  8.11618e-01   1.55773e+00  -1.39722e+00
Si    9.52971e+00   9.49877e+00   1.56090e+00  8.16532e-03   1.52193e-01  -1.44600e+00
Si    6.78000e+00   9.52197e+00   3.95994e+00  6.64542e-01   7.76397e-01   1.57015e+00
Si    9.62399e+00   6.73300e+00   4.04539e+00 -9.80270e-01  -6.61416e-01   7.37466e-01
Si    1.09387e+01   1.08056e+01   5.43146e+00 -1.52555e+00   3.80589e-01  -7.27314e-02
Si    2.69404e+00   2.72920e+00   5.35820e+00  1.05385e+00  -4.85786e-01  -1.48130e+00
Si    4.85871e-03   2.76310e+00   8.19006e+00 -1.03971e-01  -8.20359e-01  -1.49347e+00
Si    2.61640e+00   7.89078e-02   8.14824e+00  4.99279e-01  -4.15210e-02   4.57495e-01
Si    1.35659e+00   1.41168e+00   6.62976e+00 -4.69094e-01   5.01271e-02   2.47851e+00
Si    4.18539e+00   3.98282e+00   6.61348e+00 -9.69463e-01   1.12142e+00   1.86707e+00
Si    1.26778e+00   4.09730e+00   9.56564e+00  8.46230e-01   1.22543e-01   4.55772e-01
Si    3.95454e+00   1.44357e+00   9.60205e+00  5.61598e-01  -4.69457e-02  -1.72673e+00
Si    5.40578e+00   3.91559e-02   5.43168e+00  6.96629e-01  -1.02847e+00  -1.40625e+00
Si    8.13568e+00   2.60559e+00   5.48189e+00  3.68657e-01   8.14842e-01  -8.79824e-01
Si    5.45093e+00   2.61379e+00   8.05107e+00 -6.68418e-01   5.18219e-01   1.26536e+00
Si    8.27266e+00  -8.43359e-02   8.03146e+00 -7.99238e-01   1.86287e-01   5.68153e-01
Si    6.76005e+00   1.24365e+00   6.78793e+00  1.25285e+00   6.74052e-02  -2.58936e-03
Si    9.51440e+00   4.07216e+00   6.72684e+00 -8.04280e-01  -1.00247e-01   1.51066e+00
Si    6.84697e+00   3.96846e+00   9.43050e+00 -6.94603e-01   1.08041e-01  -4.02970e-01
Si    9.51503e+00   1.31237e+00   9.45223e+00  5.74096e-01  -5.52749e-01  -9.80412e-02
Si    1.09286e+01   5.38501e+00   5.49762e+00  4.43365e-02   6.49859e-01  -7.40703e-01
Si    2.68641e+00   8.19686e+00   5.57122e+00  8.36175e-01   5.58797e-01  -4.09342e-01
Si    1.07960e+01   8.12643e+00   8.23289e+00  1.63092e+00  -8.43144e-01   1.80773e-01
Si    2.84387e+00   5.31879e+00   8.29758e+00 -3.08680e-01  -2.05189e-02  -1.80748e+00
Si    1.44585e+00   6.70557e+00   6.87697e+00 -5.74566e-01   2.52993e-01   1.10870e+00
Si    4.13641e+00   9.65032e+00   6.84549e+00 -1.06331e+00  -1.49524e+00   6.22554e-01
Si    1.37196e+00   9.49265e+00   9.62462e+00 -8.47786e-01   3.30897e-01  -1.98838e+00
Si    4.08697e+00   6.81015e+00   9.59648e+00  6.17346e-01  -2.86127e-01  -6.27130e-01
Si    5.39860e+00   5.58208e+00   5.40010e+00  5.95595e-01  -4.67848e-01  -6.89002e-01
Si    8.15371e+00   8.06547e+00   5.31504e+00  1.09293e-01   7.77043e-01  -5.33471e-02
Si    5.47265e+00   8.13347e+00   8.17444e+00 -2.95326e-01   1.18245e+00   5.00518e-01
Si    8.10729e+00   5.48832e+00   8.13905e+00  1.06997e+00  -6.73951e-01   9.49067e-02
Si    6.82120e+00   6.87310e+00   6.80312e+00 -5.11038e-01  -7.98631e-01  -7.00593e-01
Si    9.53935e+00   9.33130e+00   6.73728e+00  1.93223e-01   1.13201e+00  -7.60257e-01
Si    6.93393e+00   9.50978e+00   9.50421e+00 -1.48483e+00   4.47321e-01  -6.69128e-01
Si    9.42221e+00   6.83370e+00   9.63943e+00 -2.85212e-01  -1.57336e-01  -5.59122e-01
