64
Lattice="10.862 0 0 0 10.862 0 0 0 10.862 " PBC="1 1 1" Properties=species:S:1:pos:R:3:force:R:3 Energy="-266.9257"
Si   -1.46953e-02  -4.61034e-02   3.25232e-02  4.55017e-01   3.51623e-01  -1.37288e+00
Si    2.60759e+00   2.82900e+00   5.96533e-02 -1.11746e+00  -8.47804e-01  -1.19633e+00
Si    1.09061e+01   2.74479e+00   2.75454e+00 -1.36066e+00   3.98108e-01  -2.72635e-01
Si    2.82475e+00   5.73674e-02   2.79759e+00 -2.11012e+00  -5.48276e-01  -1.94223e+00
Si    1.23355e+00   1.37864e+00   1.38054e+00  2.11878e+00  -5.85578e-01   3.19591e-01
Si    3.84703e+00   4.13749e+00   1.45421e+00  2.60646e+00  -4.48187e-01  -1.89486e-01
Si    1.47212e+00   4.06360e+00   4.01539e+00 -3.77210e-01   5.32031e-01   1.17006e+00
Si    4.12015e+00   1.38345e+00   4.05661e+00  2.68239e-01   5.81430e-01   1.79585e+00
Si    5.50611e+00   1.10365e+01   8.54963e-02 -1.37539e+00   1.86563e-02   1.48417e-01
Si    8.12921e+00   2.56809e+00  -7.16587e-02 -1.81083e-01   1.53889e+00   9.93103e-02
Si    5.37885e+00   2.87196e+00   2.86927e+00  4.47865e-01  -3.46742e-01  -1.72450e+00
Si    8.28772e+00   1.08868e+01   2.71529e+00 -7.94924e-01   1.45945e-01  -3.09528e-01
Si    6.82251e+00   1.47495e+00   1.45914e+00 -2.19448e-01  -3.23884e-01   1.05128e+00
Si    9.42170e+00   3.99421e+00   1.30535e+00  2.60055e-01   3.81383e-02   4.44473e-01
Si    6.79529e+00   4.12120e+00   4.23230e+00  2.41978e-02  -8.20338e-02  -1.01278e-01
Si    9.51309e+00   1.43254e+00   4.13217e+00  1.07172e+00  -8.78783e-01  -2.19844e-01
Si    1.05967e+01   5.47164e+00   1.07486e+01  1.53986e+00  -8.31445e-01  -1.92800e-01
Si    2.72062e+00   7.94283e+00   1.07517e+01  8.78312e-01   9.07775e-01   2.05378e-01
Si    9.55414e-02   8.06839e+00   2.72267e+00 -3.57925e-01  -1.35428e-02  -1.65467e-01
Si    2.69336e+00   5.53919e+00   2.72349e+00 -8.60126e-01   5.80494e-01   5.01858e-01
Si    1.25531e+00   6.71190e+00   1.28706e+00  4.25146e-01  -2.74730e-01  -6.24978e-01
Si    3.99990e+00   9.62420e+00   1.20845e+00  3.22683e-01  -1.21334e+00   5.54169e-01
Si    1.52969e+00   9.35182e+00   4.04450e+00 -3.05032e-01   7.64071e-01  -6.88807e-01
Si    4.05413e+00   6.90641e+00   4.07955e+00  8.08804e-01  -1.14041e+00  -3.83022e-01
Si    5.37659e+00   5.37444e+00   1.09737e+01  2.86713e-01  -1.41593e-01  -9.19706e-01
Si    8.08729e+00   8.28383e+00   4.03397e-02  8.35527e-01  -1.98130e+00   9.33436e-01
Si    5.37255e+00   8.21680e+00   2.62198e+00  2.29659e-01  -3.33431e-01  -3.49061e-01
Si    8.15024e+00   5.36325e+00   2.78502e+00 -3.21878e-02  -6.64412e-01  -6.72337e-01
Si    6.82139e+00   6.70641e+00   1.41662e+00 -4.83994e-01   1.32815e+00  -4.15272e-01
Si    9.64676e+00   9.46785e+00   1.36706e+00 -1.39708e+00  -1.77196e-01   7.93401e-01
Si    6.84408e+00   9.46594e+00   3.94226e+00 -1.81781e-01   5.41842e-01   1.00041e+00
Si    9.65123e+00   6.58336e+00   4.00651e+00 -1.36812e-01   1.61505e+00   1.09377e+00
Si    1.09711e+01   1.06987e+01   5.25315e+00 -4.67728e-01   1.72649e+00   1.54091e+00
Si    2.81830e+00   2.80472e+00   5.46372e+00 -7.08452e-01  -1.35471e+00  -1.34537e+00
Si   -3.03219e-02   2.69807e+00   8.08642e+00 -4.88992e-01  -5.79539e-01  -1.46669e+00
Si    2.61033e+00   8.64563e-02   8.16302e+00  5.06204e-01  -1.33480e+00   1.05532e+00
Si    1.42243e+00   1.37223e+00   6.67111e+00 -1.43753e+00  -4.87282e-02  -6.35096e-02
Si    4.05586e+00   4.07081e+00   6.82645e+00  3.37324e-01   6.77207e-01   2.74499e-01
Si    1.23901e+00   4.08364e+00   9.30854e+00  1.69474e-02   4.64429e-01   3.39860e+00
Si    4.01104e+00   1.40166e+00   9.60430e+00 -2.20888e-01   4.23958e-01  -5.55343e-01
Si    5.39407e+00  -6.37538e-02   5.41134e+00  9.71271e-01   6.64144e-02  -1.71223e+00
Si    8.19646e+00   2.74174e+00   5.53865e+00 -8.34492e-01  -4.14325e-01   5.34633e-01
Si    5.35069e+00   2.64236e+00   8.07584e+00  7.44467e-01  -6.64966e-01   8.00445e-01
Si    8.15380e+00  -1.75715e-01   8.21482e+00  3.91971e-01   9.81648e-01  -1.12734e+00
Si    6.75742e+00   1.12856e+00   6.79308e+00  9.27216e-01   2.04684e+00   4.52403e-01
Si    9.53608e+00   4.26214e+00   6.80559e+00 -6.61455e-01  -1.83467e+00   5.54535e-01
Si    6.69520e+00   3.98142e+00   9.50634e+00  1.74709e-01   2.07377e-01   1.96300e-02
Si    9.49282e+00   1.29705e+00   9.43148e+00  5.41663e-01  -5.90166e-01   3.78729e-01
Si    1.10283e+01   5.40273e+00   5.51647e+00  4.66836e-01   2.87147e-01  -1.15071e+00
Si    2.76716e+00   8.11009e+00   5.48922e+00  7.97256e-01   1.08234e+00   7.11062e-01
Si    1.08139e+01   8.02181e+00   8.07595e+00  8.98251e-01   2.11928e-01   3.76317e-01
Si    2.73235e+00   5.39081e+00   8.20808e+00  1.06068e+00  -7.25632e-02  -8.35895e-01
Si    1.55356e+00   6.75797e+00   6.86306e+00 -1.92125e+00   8.79920e-02  -4.26066e-01
Si    4.06294e+00   9.63883e+00   6.80470e+00 -9.54452e-01  -1.05976e+00   3.97785e-01
Si    1.27999e+00   9.32267e+00   9.53236e+00  3.87378e-01   1.45935e+00  -8.81109e-01
Si    4.29429e+00   6.71932e+00   9.29986e+00 -7.16328e-01   8.15091e-01   1.78940e+00
Si    5.35715e+00   5.46394e+00   5.49307e+00  4.29936e-01   1.21832e+00   2.34743e-01
Si    8.24546e+00   8.08889e+00   5.30608e+00 -5.38445e-01  -5.01764e-01   8.80749e-01
Si    5.55227e+00   8.39647e+00   8.11303e+00 -1.40647e+00   2.52724e-01   1.67471e+00
Si    7.96973e+00   5.46376e+00   8.10521e+00  3.65174e-01  -4.72312e-01   8.05702e-01
Si    6.69273e+00   6.93522e+00   6.90916e+00  1.18880e+00  -8.89275e-01  -3.15492e+00
Si    9.59734e+00   9.44822e+00   6.75801e+00 -6.65324e-01  -4.40179e-02  -8.64513e-01
Si    6.78250e+00   9.64986e+00   9.70982e+00 -3.72617e-01  -6.46056e-01  -1.52366e+00
Si    9.29659e+00   6.86569e+00   9.39268e+00 -9.94554e-02  -1.11279e-02   8.55950e-01
