64
Lattice="10.862 0 0 0 10.862 0 0 0 10.862 " PBC="1 1 1" Properties=species:S:1:pos:R:3:force:R:3 Energy="-267.52199"
Si    1.76753e-02   1.24180e-02   1.95913e-01  1.85691e-02  -1.55205e-01  -1.34448e+00
Si    2.63181e+00   2.82986e+00  -1.44367e-01  1.38867e+00  -1.22760e+00   2.33671e-01
Si    1.10702e+01   2.75331e+00   2.73665e+00 -2.42402e+00  -1.42188e-02   6.33549e-02
Si    2.74102e+00  -2.49004e-02   2.64801e+00 -7.05247e-01   5.89146e-01  -1.30265e-01
Si    1.40294e+00   1.48728e+00   1.28325e+00  9.22318e-01  -1.21733e+00   7.48701e-01
Si    3.94347e+00   4.15970e+00   1.27159e+00  1.54098e+00  -8.89559e-01   3.01520e-02
Si    1.30125e+00   4.04387e+00   4.22747e+00  1.49759e+00   1.14869e+00   8.78806e-02
Si    3.94440e+00   1.53454e+00   3.97252e+00  4.72962e-04  -1.18875e+00   1.13390e+00
Si    5.50066e+00   1.08277e+01   7.23602e-02  5.51609e-01   1.42146e+00   8.19347e-03
Si    8.28226e+00   2.80915e+00   6.22757e-02 -1.43845e+00  -8.88642e-01   4.05478e-01
Si    5.41476e+00   2.78729e+00   2.68643e+00 -4.84004e-01   8.98602e-01  -1.11041e-01
Si    8.12530e+00   1.07455e+01   2.81241e+00  1.24907e+00   1.62497e+00   2.28720e-01
Si    6.89728e+00   1.44208e+00   1.55436e+00 -2.69149e-01  -9.37112e-01  -2.32143e+00
Si    9.51945e+00   4.10240e+00   1.49273e+00  1.54750e+00   5.09664e-02  -5.79436e-01
Si    6.88664e+00   3.98394e+00   4.10107e+00 -1.08111e+00   7.67853e-01  -7.57994e-01
Si    9.64892e+00   1.39173e+00   4.09342e+00 -7.70076e-01  -1.07845e+00   2.04764e-01
Si    1.07591e+01   5.43186e+00   1.07803e+01  6.70740e-01  -2.81877e-01   5.30516e-01
Si    2.85831e+00   8.11293e+00   1.08091e+01 -1.72507e+00  -2.39994e-02   1.18023e+00
Si   -5.54162e-02   8.06537e+00   2.63345e+00  1.31831e+00  -2.08034e-01   6.52821e-01
Si    2.67901e+00   5.38841e+00   2.70658e+00 -1.37906e+00  -1.34301e+00   6.39242e-01
Si    1.35012e+00   6.67259e+00   1.34963e+00  1.18443e-01   1.37035e+00  -1.41271e+00
Si    4.14422e+00   9.46856e+00   1.34412e+00  4.30029e-01  -1.01427e+00   7.95165e-01
Si    1.31023e+00   9.42509e+00   3.97107e+00  1.21120e+00  -2.35720e-01   3.83665e-01
Si    4.05405e+00   6.53041e+00   4.03971e+00  1.59792e+00   1.35339e+00  -5.94768e-01
Si    5.41339e+00   5.50203e+00   1.08586e+01  5.01656e-01  -4.44120e-01  -3.52244e-02
Si    8.25389e+00   8.09348e+00  -1.15483e-01 -1.33992e+00   1.56492e+00   1.77263e+00
Si    5.51182e+00   7.91733e+00   2.69540e+00 -8.84133e-01   8.00219e-01  -1.92034e-01
Si    8.18758e+00   5.42888e+00   2.80016e+00 -2.19711e-02  -1.14609e+00   2.06233e-01
Si    6.98307e+00   6.63625e+00   1.35292e+00 -1.25071e+00   1.56860e+00  -1.14899e+00
Si    9.53451e+00   9.46020e+00   1.46746e+00 -1.28391e+00   1.29792e-01  -1.77614e+00
Si    6.66995e+00   9.48533e+00   4.04140e+00 -3.56007e-01  -3.48045e-01   8.00991e-01
Si    9.42476e+00   6.87962e+00   4.00235e+00  1.51504e-01   1.21666e-01   1.62296e+00
Si    1.09620e+01   1.07707e+01   5.49771e+00 -6.30710e-01   8.25780e-01  -1.44470e+00
Si    2.64030e+00   2.65321e+00   5.67471e+00 -6.27938e-01  -2.94140e-01  -2.14867e+00
Si   -7.72311e-02   2.70321e+00   8.22333e+00 -3.58676e-02  -8.23406e-01  -6.84272e-01
Si    2.68301e+00  -5.43187e-02   8.26199e+00  9.49262e-01   7.51441e-01  -1.64868e+00
Si    1.26749e+00   1.26865e+00   6.95901e+00  5.58381e-01   2.17755e-01   9.56809e-02
Si    4.06849e+00   3.96080e+00   6.79800e+00  2.19114e-01   1.45707e+00   1.70039e+00
Si    1.27821e+00   4.06939e+00   9.39267e+00 -4.68354e-01   1.14797e+00   9.77501e-01
Si    4.10891e+00   1.30597e+00   9.49037e+00 -7.60529e-02   7.70191e-01   1.23081e+00
Si    5.27416e+00   8.21640e-02   5.34225e+00  1.00347e+00   6.90036e-01   7.10722e-02
Si    8.13302e+00   2.69468e+00   5.46492e+00  1.12325e+00  -9.19937e-01  -2.81006e-01
Si    5.48750e+00   2.78439e+00   8.28190e+00 -6.30918e-01  -5.12100e-01  -8.39656e-01
Si    8.11917e+00   1.78224e-01   8.10117e+00  5.29941e-01  -2.03486e+00   6.43827e-01
Si    6.72424e+00   1.44845e+00   6.82259e+00 -8.33656e-01  -4.30772e-01  -9.58140e-01
Si    9.51806e+00   3.99448e+00   6.76898e+00 -6.17641e-01   2.44108e+00   5.03211e-01
Si    6.84926e+00   4.14589e+00   9.56518e+00  8.87022e-02   1.64780e-01   3.56812e-01
Si    9.53300e+00   1.32464e+00   9.61517e+00 -2.45890e-01   2.53362e-01  -6.57231e-03
Si    1.08172e+01   5.60709e+00   5.41572e+00 -8.28986e-01  -2.02790e+00  -7.70666e-02
Si    2.80096e+00   7.97404e+00   5.26339e+00 -1.09713e+00   1.85272e+00   4.22343e-01
Si    1.09189e+01   8.22908e+00   8.05082e+00  3.17083e-01   3.52950e-01   6.55890e-01
Si    2.65654e+00   5.43897e+00   8.16468e+00  1.38422e+00   1.92673e-01  -1.15868e+00
Si    1.40829e+00   6.79929e+00   6.68379e+00 -5.02431e-02   5.27857e-01   1.21246e+00
Si    3.95500e+00   9.55670e+00   6.64512e+00  4.08876e-02  -8.17946e-01   9.10360e-01
Si    1.43482e+00   9.58718e+00   9.62635e+00 -1.61961e+00  -1.83178e+00   1.21425e-01
Si    4.16259e+00   6.86919e+00   9.41757e+00 -1.01279e+00  -1.45701e+00   1.75854e-01
Si    5.41377e+00   5.24577e+00   5.37359e+00  4.08828e-01   5.42467e-01   1.14637e+00
Si    8.05341e+00   8.20668e+00   5.45229e+00 -4.14255e-01  -8.74052e-01  -4.45801e-01
Si    5.36237e+00   8.22073e+00   8.07383e+00  3.49883e-01   8.53568e-01  -7.10700e-01
Si    8.07501e+00   5.55889e+00   8.13997e+00  1.22828e+00  -1.83922e+00  -4.58273e-01
Si    6.66042e+00   6.76152e+00   6.81573e+00  6.00917e-02   4.33307e-01  -1.59482e+00
Si    9.46029e+00   9.55231e+00   6.70056e+00 -2.73940e-01   2.12378e-01   1.51793e+00
Si    6.77310e+00   9.52691e+00   9.44431e+00  9.01935e-01   3.67248e-02   7.55719e-02
Si    9.51811e+00   6.86992e+00   9.39796e+00  9.96903e-01  -6.29585e-01  -6.85227e-01
