64
Lattice="10.862 0 0 0 10.862 0 0 0 10.862 " PBC="1 1 1" Properties=species:S:1:pos:R:3:force:R:3 Energy="-268.52401"
Si   -1.62553e-01   2.28622e-02  -2.26428e-02  1.48705e+00  -1.50723e-01  -3.37229e-01
Si    2.68985e+00   2.77760e+00  -3.07600e-02 -8.66401e-01  -8.30396e-01   2.27848e-01
Si    1.10814e+01   2.71482e+00   2.65110e+00 -2.22348e+00   9.79556e-01   9.40360e-01
Si    2.83355e+00  -4.14394e-03   2.65214e+00 -2.04517e+00  -9.03739e-01   6.43204e-02
Si    1.34586e+00   1.28206e+00   1.32254e+00  1.13777e+00   9.82532e-02  -1.08956e+00
Si    3.92242e+00   4.12044e+00   1.40008e+00  2.59577e-02   6.19777e-01  -1.01640e+00
Si    1.41548e+00   4.18710e+00   4.06535e+00  6.28841e-02  -2.88301e-01  -2.83413e-01
Si    3.98794e+00   1.27105e+00   4.11753e+00  1.15383e+00   1.11039e+00  -3.32200e-01
Si    5.47736e+00   1.08212e+01   1.73236e-02 -5.55084e-01   5.64091e-01   8.92273e-02
Si    8.16364e+00   2.73582e+00  -2.23876e-02  1.30520e+00   1.09642e+00  -2.53236e-01
Si    5.15731e+00   2.86491e+00   2.74176e+00  2.30901e+00  -1.81654e+00   7.79401e-01
Si    8.00017e+00   1.08946e+01   2.72064e+00  5.64423e-01   1.49478e+00  -4.12433e-01
Si    6.68606e+00   1.59041e+00   1.26097e+00 -5.46435e-01  -1.69911e+00   2.17292e+00
Si    9.65003e+00   4.19709e+00   1.35656e+00 -3.84821e-02  -1.28722e+00  -1.15194e+00
Si    6.66757e+00   4.13994e+00   4.11565e+00  1.66902e-03  -1.98457e-02  -1.16657e+00
Si    9.56591e+00   1.39625e+00   4.04303e+00 -6.57155e-01   4.96738e-01  -1.22526e+00
Si    1.09602e+01   5.59405e+00   1.07130e+01 -7.06950e-01  -1.04329e+00   1.33859e+00
Si    2.80656e+00   8.06606e+00   1.08859e+01 -7.20323e-01   2.56889e-01  -3.80167e-01
Si   -2.00686e-01   8.25466e+00   2.64416e+00  1.17584e+00  -6.73711e-01   2.09338e+00
Si    2.78473e+00   5.56461e+00   2.75656e+00 -1.52721e+00   3.30923e-01  -6.53526e-02
Si    1.28710e+00   6.93342e+00   1.42103e+00  8.73265e-01  -7.72433e-01  -4.80661e-01
Si    4.13134e+00   9.39320e+00   1.38137e+00  4.50375e-01   4.95135e-01  -2.66367e-02
Si    1.24963e+00   9.63059e+00   4.05900e+00  4.87899e-01  -4.00073e-01  -1.06693e+00
Si    4.12784e+00   6.80110e+00   4.17905e+00 -1.06823e+00  -1.04930e-01   2.50528e-01
Si    5.41822e+00   5.29572e+00   1.09146e+01  3.63931e-02   1.89526e-01   3.80596e-02
Si    8.04873e+00   8.17289e+00  -1.00145e-02  1.43436e+00  -1.44562e+00  -3.40969e-01
Si    5.39156e+00   8.00090e+00   2.79406e+00  1.46563e+00   1.69777e+00  -5.10952e-01
Si    8.17124e+00   5.38933e+00   2.70137e+00 -9.14484e-01   6.66906e-01   3.92628e-01
Si    6.71320e+00   6.76068e+00   1.32271e+00  8.94101e-01  -5.87014e-01   6.82808e-01
Si    9.38135e+00   9.58280e+00   1.34416e+00 -1.21136e+00   6.34070e-03  -4.85595e-01
Si    6.78481e+00   9.48237e+00   4.12105e+00 -3.17989e-01  -1.02167e+00  -1.46092e-01
Si    9.50674e+00   6.69886e+00   4.15738e+00  1.18734e-01   1.39580e+00  -3.93278e-01
Si    1.08793e+01   1.10198e+01   5.48113e+00 -5.14690e-01  -1.84489e+00   5.08323e-01
Si    2.66824e+00   2.72575e+00   5.34610e+00  2.11319e-01  -6.51234e-01   1.24208e+00
Si    2.51141e-02   2.69796e+00   8.05147e+00  4.06945e-02  -4.17533e-01   4.01284e-01
Si    2.66197e+00  -5.14974e-02   8.29653e+00  6.48044e-01   1.23145e+00  -2.41016e-01
Si    1.45885e+00   1.30011e+00   6.84038e+00 -3.35367e-01   1.22142e+00  -3.54821e-01
Si    4.04574e+00   3.93499e+00   6.80717e+00  1.62840e-01   8.71562e-01  -2.99899e-01
Si    1.30978e+00   4.07662e+00   9.41652e+00  4.22514e-01  -1.52203e-01   6.38710e-01
Si    4.07857e+00   1.37205e+00   9.55881e+00  4.03061e-02  -5.79060e-01  -1.32538e-01
Si    5.38083e+00  -8.95849e-02   5.45245e+00  1.47900e-01   7.68251e-01  -1.05853e-01
Si    8.10055e+00   2.76325e+00   5.28944e+00  7.89002e-01  -7.15859e-01   8.91253e-01
Si    5.44234e+00   2.64596e+00   8.11969e+00  6.32438e-01  -1.45508e+00  -6.53647e-01
Si    8.21905e+00  -1.50577e-01   8.16528e+00 -9.33710e-01   1.41902e+00  -3.02702e-01
Si    6.91603e+00   1.21148e+00   6.65452e+00 -9.12766e-01   9.12006e-01   1.37064e+00
Si    9.55002e+00   4.00738e+00   6.71422e+00 -3.22438e-01   6.51251e-01  -5.03540e-01
Si    6.71730e+00   3.98403e+00   9.50149e+00  1.30164e+00   9.36478e-01  -7.14761e-01
Si    9.47296e+00   1.37713e+00   9.37593e+00 -7.65378e-02   1.32530e-01   8.88843e-01
Si    1.10044e+01   5.47997e+00   5.53662e+00 -4.81655e-01  -2.19452e-01  -4.37571e-01
Si    2.72856e+00   8.29357e+00   5.33657e+00 -2.02464e-02  -3.34973e-01   7.88640e-01
Si    1.09824e+01   8.08049e+00   8.17575e+00  3.12054e-01  -4.10792e-01  -2.14720e-01
Si    2.79132e+00   5.33593e+00   8.19866e+00  9.24396e-02  -1.21393e-01  -7.78259e-01
Si    1.63471e+00   6.80940e+00   6.81306e+00 -1.51975e+00   3.26890e-01   2.87531e-02
Si    3.95747e+00   9.60250e+00   6.86605e+00  1.09882e+00  -1.69684e+00  -2.37103e-01
Si    1.35797e+00   9.46976e+00   9.57269e+00 -5.64139e-01  -4.03208e-01   1.15838e+00
Si    4.13809e+00   6.60790e+00   9.54120e+00 -2.25816e-01   1.27951e+00   1.44171e-02
Si    5.38377e+00   5.44656e+00   5.55687e+00  4.90815e-01  -1.45400e-01   1.36837e-01
Si    8.22608e+00   8.19419e+00   5.54534e+00  1.83287e-01  -1.10170e-01  -1.05163e+00
Si    5.36948e+00   8.07405e+00   8.12619e+00  1.76175e-01   8.65780e-01   5.29744e-01
Si    8.14931e+00   5.37046e+00   8.02672e+00 -5.88823e-01  -1.04042e+00   8.70981e-01
Si    6.85411e+00   6.84159e+00   6.80050e+00 -9.43362e-01  -6.14295e-01  -3.48356e-02
Si    9.63599e+00   9.47129e+00   6.93680e+00  4.87843e-01   3.38596e-01  -1.95137e+00
Si    6.78878e+00   9.47438e+00   9.50276e+00 -9.99663e-01  -2.12349e-01  -7.39490e-01
Si    9.47335e+00   6.70898e+00   9.34741e+00 -3.84808e-01   1.71572e+00   1.37970e+00
