64
Lattice="10.862 0 0 0 10.862 0 0 0 10.862 " PBC="1 1 1" Properties=species:S:1:pos:R:3:force:R:3 Energy="-268.0075"
Si    8.24960e-02   8.33857e-03  -9.92240e-03 -9.16735e-01  -4.36542e-01  -3.10421e-02
Si    2.66550e+00   2.79549e+00  -1.56878e-01  5.63645e-01  -7.53463e-01   7.21394e-01
Si    1.08239e+01   2.74094e+00   2.85839e+00  3.24756e-01  -4.13084e-01  -9.19632e-01
Si    2.74975e+00   1.03833e-01   2.69222e+00 -8.97206e-01  -4.38410e-01  -2.01959e-01
Si    1.33593e+00   1.44248e+00   1.30772e+00  2.68354e-01   5.24422e-01   7.66416e-01
Si    4.05359e+00   4.07868e+00   1.24677e+00 -3.84322e-01   1.54215e-01   2.17006e-01
Si    1.27456e+00   4.07043e+00   4.24777e+00  1.12602e+00   2.33228e-01  -4.85895e-01
Si    4.09049e+00   1.42556e+00   4.03008e+00  1.60212e-01   8.12383e-01  -4.77313e-01
Si    5.15646e+00   1.08969e+01   1.06725e-01  2.85998e+00  -4.34631e-01  -3.73222e-01
Si    8.15883e+00   2.66150e+00  -4.41022e-02  5.58714e-01   2.41350e-01   6.65394e-01
Si    5.45003e+00   2.85228e+00   2.63353e+00 -3.65359e-01  -8.76826e-01   6.66532e-01
Si    8.10335e+00   1.08644e+01   2.63950e+00  1.00772e+00   8.09435e-01  -9.68795e-03
Si    6.71520e+00   1.36302e+00   1.33291e+00 -2.14844e-02   1.87799e-01  -3.55793e-01
Si    9.55663e+00   4.11159e+00   1.43274e+00  1.49994e-02  -7.05932e-01  -2.13822e+00
Si    6.77603e+00   4.22396e+00   4.00694e+00 -1.56663e-01  -3.60559e-02   8.99702e-01
Si    9.43974e+00   1.35664e+00   4.14513e+00 -2.30529e-02  -4.88453e-01  -4.16346e-01
Si    1.07920e+01   5.48305e+00   1.06645e+01  2.77659e-01   4.17585e-01   3.08225e+00
Si    2.75715e+00   8.14254e+00   1.08617e+01 -3.88627e-01  -4.63405e-01   1.54824e-01
Si   -7.31703e-02   8.08336e+00   2.89303e+00  9.77411e-01   9.20268e-01  -1.54324e+00
Si    2.66365e+00   5.36237e+00   2.73342e+00  1.77189e-02  -7.90826e-02   1.09972e-01
Si    1.35686e+00   6.82465e+00   1.39068e+00 -1.07401e+00  -6.86603e-01  -5.20089e-01
Si    3.98554e+00   9.46144e+00   1.41369e+00  3.73809e-01  -2.70277e-01   7.31093e-01
Si    1.44599e+00   9.50926e+00   4.04627e+00 -4.42748e-01  -1.34039e-01   3.82439e-01
Si    4.06718e+00   6.68304e+00   4.11741e+00 -1.19780e+00   2.03200e+00  -1.06600e-02
Si    5.56992e+00   5.25852e+00   1.07694e+01 -5.64700e-01   1.26562e+00   2.50811e-01
Si    8.11882e+00   8.11697e+00   1.55753e-03 -6.58385e-01   3.48443e-01   7.96416e-01
Si    5.45124e+00   8.08150e+00   2.72631e+00 -1.65864e+00  -3.02273e-01  -3.07145e-01
Si    8.23862e+00   5.49591e+00   2.65827e+00 -4.75664e-01   1.19722e-01   1.73392e+00
Si    6.75118e+00   6.71572e+00   1.42223e+00  6.61311e-01   1.44472e-01  -1.89161e+00
Si    9.52932e+00   9.49291e+00   1.36816e+00  2.23524e-01  -3.64122e-01  -5.59913e-02
Si    6.79454e+00   9.49380e+00   3.86647e+00  2.94684e-01  -4.22117e-01   1.99500e+00
Si    9.45908e+00   6.78872e+00   4.25308e+00 -6.87566e-02  -3.10687e-01   2.40899e-01
Si    1.09248e+01   1.08073e+01   5.41384e+00 -1.21938e+00  -2.12860e-02  -1.70740e-01
Si    2.73519e+00   2.67535e+00   5.50379e+00 -3.35656e-01   3.26165e-01  -2.65007e-01
Si    8.87390e-02   2.68395e+00   8.16324e+00 -7.51960e-01   6.90328e-02   6.09697e-01
Si    2.73236e+00  -4.74137e-02   8.23844e+00  1.33233e-03   7.84600e-01  -2.17672e+00
Si    1.30750e+00   1.26983e+00   6.79183e+00  1.71694e+00   2.97556e-01   6.69222e-01
Si    4.15898e+00   4.11325e+00   6.74297e+00 -9.23548e-01  -1.27524e+00   1.05031e+00
Si    1.39328e+00   4.26779e+00   9.45202e+00  4.09429e-01  -1.37048e+00  -1.31127e+00
Si    4.09562e+00   1.30454e+00   9.44874e+00 -5.02342e-01   1.99625e+00  -5.85359e-01
Si    5.43235e+00  -3.44698e-02   5.19071e+00 -9.26945e-02  -3.01498e-01   1.40564e+00
Si    8.06219e+00   2.79284e+00   5.42287e+00  9.37903e-01   1.56715e-01  -1.21437e+00
Si    5.51802e+00   2.55912e+00   7.87726e+00 -4.84324e-01   2.82348e-01   1.66713e+00
Si    8.20051e+00  -1.24666e-01   8.10539e+00 -1.67532e+00   1.12946e+00   2.21874e-01
Si    6.88197e+00   1.25283e+00   6.53835e+00 -4.50393e-01  -1.32783e+00   1.30440e+00
Si    9.46709e+00   3.94250e+00   6.87482e+00  2.84752e-01   1.72451e+00  -2.00445e-01
Si    6.86654e+00   3.91228e+00   9.32260e+00 -1.47849e+00  -8.55811e-01   1.07513e+00
Si    9.48550e+00   1.26641e+00   9.45156e+00  1.02296e+00   5.46719e-01   3.94137e-01
Si    1.09177e+01   5.48869e+00   5.66063e+00 -1.86021e+00  -1.23676e+00  -9.26649e-01
Si    2.67207e+00   8.18611e+00   5.58536e+00  8.41152e-01  -8.95328e-01  -1.70971e+00
Si    1.08045e+01   8.15724e+00   8.23183e+00  1.04939e+00  -2.98193e-01   1.23963e-01
Si    2.96845e+00   5.52611e+00   8.19733e+00 -1.83727e+00  -4.61495e-01  -7.61583e-01
Si    1.36539e+00   6.80538e+00   6.92789e+00  9.67692e-01   5.44240e-01   1.00795e+00
Si    4.09621e+00   9.54688e+00   6.80250e+00  7.01915e-01   2.28718e-01   1.86153e-02
Si    1.44671e+00   9.51354e+00   9.50250e+00 -1.37024e+00  -1.00775e+00   9.13379e-01
Si    4.22148e+00   6.84159e+00   9.55042e+00  2.91588e-01  -3.93687e-01   9.42103e-01
Si    5.37175e+00   5.52627e+00   5.54742e+00  1.31641e+00  -1.12348e+00  -2.45450e+00
Si    8.06891e+00   8.25119e+00   5.51819e+00  3.03929e-01  -3.31354e-01  -1.33882e+00
Si    5.48002e+00   8.23696e+00   8.24852e+00 -4.54029e-01  -5.08246e-01  -1.74359e+00
Si    8.00525e+00   5.37649e+00   8.13226e+00  1.56809e+00   8.91268e-01  -1.52689e+00
Si    6.71743e+00   6.83234e+00   6.74876e+00  5.51584e-01   7.34002e-01   2.00013e+00
Si    9.57110e+00   9.46127e+00   6.83888e+00  3.45974e-02   2.04517e-01  -1.11686e+00
Si    6.69087e+00   9.55989e+00   9.61067e+00  9.70970e-01   7.58396e-01   4.41282e-01
Si    9.35826e+00   6.77786e+00   9.43120e+00  4.88464e-02   1.39004e-01  -1.86642e-02
