64
Lattice="10.862 0 0 0 10.862 0 0 0 10.862 " PBC="1 1 1" Properties=species:S:1:pos:R:3:force:R:3 Energy="-268.33955"
Si   -5.10160e-02  -3.85071e-03  -4.44566e-02  3.49481e-02   2.04482e-01  -1.11794e-02
Si    2.61233e+00   2.76300e+00   1.05447e-01  4.61195e-01   5.38974e-02   7.94319e-01
Si    1.08881e+01   2.77303e+00   2.72068e+00 -2.31019e-01  -1.43371e-01   2.29222e-01
Si    2.78509e+00  -1.40178e-01   2.64041e+00 -6.94122e-01   8.45739e-01   8.53777e-01
Si    1.29702e+00   1.29731e+00   1.45894e+00  4.90806e-01  -1.43708e-01  -1.13476e+00
Si    4.17386e+00   4.02681e+00   1.43925e+00 -9.13240e-01   1.07214e+00  -9.86935e-01
Si    1.43887e+00   4.02708e+00   4.06405e+00 -9.26410e-01   8.33021e-01   4.01938e-02
Si    4.10505e+00   1.23639e+00   4.02527e+00  8.75733e-02   4.32831e-01   1.09306e+00
Si    5.39536e+00   1.08795e+01   4.66698e-03  6.55634e-01   6.83742e-01   1.51590e-01
Si    8.15854e+00   2.57315e+00  -1.88382e-02  2.93687e-01   1.54445e+00   1.67513e+00
Si    5.44863e+00   2.71999e+00   2.81386e+00  9.01050e-01  -7.60002e-01  -1.59045e-01
Si    8.22243e+00   1.10148e+01   2.78667e+00  4.34461e-02  -4.32830e-01  -3.26952e-01
Si    6.81031e+00   1.34099e+00   1.37143e+00 -7.73008e-01   2.63413e-01   5.38190e-01
Si    9.49086e+00   4.09031e+00   1.35317e+00 -5.47148e-01  -7.74836e-01  -5.05600e-01
Si    6.77225e+00   4.06839e+00   4.25216e+00 -8.45781e-01   9.22914e-01  -1.04837e+00
Si    9.58824e+00   1.46951e+00   4.16926e+00 -5.47601e-01  -5.31405e-01   4.66904e-01
Si    1.06745e+01   5.45568e+00   1.07177e+01  1.78555e+00  -5.69389e-01   2.39193e+00
Si    2.71323e+00   8.26348e+00   1.07096e+01  2.79926e-01  -9.54361e-01   6.74107e-01
Si    9.13042e-02   8.04822e+00   2.50395e+00 -6.59512e-01   1.08264e+00   1.50399e+00
Si    2.72991e+00   5.43766e+00   2.74997e+00  2.69979e-01   4.71479e-01  -1.14511e+00
Si    1.38520e+00   6.74111e+00   1.16035e+00  5.21243e-01  -5.63904e-01  -1.83587e-01
Si    4.16714e+00   9.47613e+00   1.33081e+00 -8.26390e-01  -5.86553e-01  -8.14620e-01
Si    1.44395e+00   9.36357e+00   4.02274e+00 -5.20871e-01   1.17445e-01  -2.64093e-01
Si    4.02610e+00   6.91686e+00   4.07601e+00  4.43361e-01  -9.49183e-01  -5.04031e-01
Si    5.57126e+00   5.32903e+00   1.07713e+01 -1.57736e+00   4.08568e-01   1.36858e+00
Si    8.08126e+00   8.19394e+00   6.15916e-02  4.96982e-01   4.41082e-01   8.21430e-01
Si    5.47942e+00   8.14464e+00   2.69690e+00  1.03303e-01   2.02018e-01   1.23595e-01
Si    8.11365e+00   5.39350e+00   2.73320e+00 -2.22832e-02  -2.27255e-01   2.91200e-01
Si    6.79065e+00   6.73808e+00   1.32651e+00 -3.50264e-03   2.21462e-02   4.76477e-01
Si    9.47197e+00   9.57727e+00   1.40694e+00  3.56728e-01  -6.60501e-01  -4.08978e-01
Si    6.79838e+00   9.64838e+00   3.99947e+00  3.25526e-01  -1.29401e+00   9.10442e-01
Si    9.59556e+00   6.74464e+00   3.95571e+00 -3.99139e-01   1.23935e-01   5.21701e-01
Si    1.09104e+01   1.07220e+01   5.40106e+00  5.58759e-01   1.74160e+00  -1.05936e+00
Si    2.75159e+00   2.70528e+00   5.36596e+00 -3.65423e-01  -1.67649e+00   7.77862e-01
Si    7.88843e-03   2.75980e+00   8.21982e+00 -1.25393e+00   9.50554e-02  -7.69160e-01
Si    2.65843e+00   1.19134e-01   8.15513e+00  8.80940e-01  -5.13722e-01   4.60388e-01
Si    1.26654e+00   1.33806e+00   6.82551e+00  6.84597e-01   9.28863e-01  -1.29833e+00
Si    4.08756e+00   4.04313e+00   6.71205e+00  2.34131e-01  -3.51789e-01   1.23451e+00
Si    1.30518e+00   4.12773e+00   9.59261e+00  1.22666e+00   4.65962e-01  -1.65691e+00
Si    4.01727e+00   1.48676e+00   9.63131e+00 -6.77430e-01  -1.67750e+00  -5.33402e-01
Si    5.53871e+00   2.16920e-02   5.56684e+00 -1.60665e+00  -6.91009e-01  -9.08010e-01
Si    7.99861e+00   2.65969e+00   5.58417e+00  1.96786e+00   2.65979e-01  -1.21809e-01
Si    5.38516e+00   2.56911e+00   8.16444e+00  8.20008e-03   2.71896e+00   7.60544e-01
Si    8.21763e+00  -7.34950e-02   8.06903e+00 -4.59644e-01  -4.44260e-01   1.47598e+00
Si    6.78860e+00   1.28205e+00   7.01302e+00  1.52700e-01   7.18389e-02  -1.84107e+00
Si    9.46461e+00   4.15880e+00   6.76140e+00 -8.80399e-01  -1.07605e+00   1.73305e+00
Si    6.88176e+00   3.91674e+00   9.55483e+00 -1.14889e+00   3.30650e-01  -2.02795e+00
Si    9.39164e+00   1.34896e+00   9.46698e+00  2.21970e+00  -7.01263e-01  -5.51407e-01
Si    1.08604e+01   5.35494e+00   5.42737e+00  7.46266e-01   6.55067e-01  -1.22099e+00
Si    2.76052e+00   8.13416e+00   5.52139e+00 -8.30381e-01   1.70926e-01  -6.55292e-01
Si    1.08335e+01   8.11393e+00   7.99789e+00 -1.03188e+00  -5.01508e-02   5.09448e-01
Si    2.84969e+00   5.48332e+00   8.10518e+00 -1.40086e+00  -1.04878e+00   8.90392e-01
Si    1.38199e+00   6.71554e+00   6.73740e+00 -3.53410e-02   1.64556e-01   4.29018e-01
Si    4.02047e+00   9.50965e+00   6.85574e+00  1.39748e+00   7.17884e-01   9.11737e-01
Si    1.27046e+00   9.52670e+00   9.32813e+00  1.53296e-01   3.18423e-01   9.66921e-01
Si    4.18065e+00   6.82526e+00   9.50497e+00 -7.04429e-01  -8.89598e-01   8.08791e-01
Si    5.30051e+00   5.55923e+00   5.46856e+00  1.10071e+00  -8.30460e-01  -7.91728e-01
Si    8.14578e+00   8.11975e+00   5.31862e+00 -1.70888e-01   2.88122e-01  -1.07931e+00
Si    5.48367e+00   8.22087e+00   8.34829e+00 -2.02182e-01   3.48757e-02  -3.19211e+00
Si    7.98064e+00   5.52440e+00   8.16094e+00  1.78361e+00  -4.97469e-01   2.43816e-01
Si    6.73017e+00   6.87901e+00   6.71463e+00 -3.77427e-01   5.64940e-01   1.30396e+00
Si    9.45797e+00   9.51837e+00   6.58851e+00  3.39302e-01  -1.48447e+00   1.53900e+00
Si    6.82124e+00   9.55135e+00   9.57618e+00  4.45584e-01   7.87340e-01  -2.75721e-01
Si    9.42827e+00   6.88870e+00   9.62590e+00 -8.17566e-01   4.77327e-01  -3.49545e+00
