64
Lattice="10.862 0 0 0 10.862 0 0 0 10.862 " PBC="1 1 1" Properties=species:S:1:pos:R:3:force:R:3 Energy="-267.79857"
Si    5.66270e-02   3.45218e-02   3.56647e-02 -1.26485e-02  -7.81433e-01   5.29277e-01
Si    2.66960e+00   2.60822e+00   1.26093e-01  1.30896e+00   1.66388e+00  -4.27499e-01
Si    1.07627e+01   2.75059e+00   2.82728e+00  5.89071e-01  -5.70541e-01  -1.43385e+00
Si    2.56682e+00  -1.76087e-01   2.72536e+00  2.05114e+00   4.29518e-01   9.49100e-01
Si    1.39860e+00   1.35105e+00   1.49910e+00 -2.14432e+00  -1.73734e-01   7.93653e-02
Si    4.08283e+00   4.06729e+00   1.50508e+00 -2.87471e-01  -1.02478e+00  -1.92033e-01
Si    1.43685e+00   4.02850e+00   3.97071e+00 -9.60503e-01  -1.44956e-01   7.71230e-01
Si    4.11025e+00   1.19471e+00   4.10550e+00 -1.20061e+00  -8.33578e-01   3.77996e-01
Si    5.49336e+00   1.09148e+01   2.30696e-02  3.93798e-01  -8.26715e-01  -1.06277e+00
Si    8.14617e+00   2.86155e+00   4.59329e-02  5.52242e-01  -1.68887e+00  -7.96615e-01
Si    5.46540e+00   2.48349e+00   2.78943e+00  2.02005e-01   2.45120e+00  -5.58882e-01
Si    8.19645e+00   1.09450e+01   2.65442e+00 -8.81227e-01  -2.01809e+00   1.33516e-01
Si    6.87879e+00   1.35096e+00   1.30531e+00 -4.69629e-01   7.68414e-01   2.43006e-01
Si    9.47826e+00   4.11619e+00   1.39112e+00  1.02118e+00   6.53931e-01   5.93750e-01
Si    6.72009e+00   4.17679e+00   4.05854e+00  5.15524e-01  -1.70608e+00  -6.63557e-01
Si    9.31639e+00   1.43967e+00   4.08651e+00  1.07244e+00   2.80595e-01   1.51069e+00
Si    1.09692e+01   5.49051e+00   1.09820e+01 -4.88164e-01  -9.17021e-02  -7.99617e-01
Si    2.88618e+00   8.21749e+00   1.07688e+01 -4.65619e-01   9.11243e-01  -8.49910e-01
Si    5.85076e-03   8.23256e+00   2.68116e+00 -7.15035e-01  -4.42523e-01  -1.15492e+00
Si    2.64630e+00   5.51507e+00   2.79354e+00  9.29776e-01   9.07107e-01  -2.09906e+00
Si    1.47169e+00   7.02622e+00   1.23606e+00 -5.19765e-01  -1.52538e+00   1.99334e+00
Si    4.21631e+00   9.54492e+00   1.34102e+00 -1.14974e+00  -5.01038e-01   4.37771e-01
Si    1.11868e+00   9.50134e+00   4.16761e+00  1.41110e+00   5.16108e-01   1.04782e-01
Si    3.92226e+00   7.01500e+00   4.04794e+00  7.66617e-01  -1.12309e+00  -1.19652e-01
Si    5.41207e+00   5.32807e+00   1.08705e+01  2.29525e-01   3.33822e-01   4.62646e-03
Si    8.17128e+00   8.03779e+00  -1.50008e-01 -3.52330e-02   4.01059e-01   8.52358e-01
Si    5.52089e+00   8.06588e+00   2.61324e+00 -7.72886e-01   6.28244e-01   2.65315e-01
Si    8.13407e+00   5.47247e+00   2.71928e+00  1.38449e-01   3.74783e-01  -1.73427e-01
Si    6.83319e+00   6.73177e+00   1.22957e+00 -1.94829e-01  -3.34823e-01   3.48943e-01
Si    9.40309e+00   9.44653e+00   1.27298e+00  1.30080e+00   8.87987e-01   2.37730e-02
Si    6.86381e+00   9.38290e+00   3.97642e+00  3.91962e-01   1.40315e+00   5.53800e-01
Si    9.53830e+00   6.88858e+00   4.01322e+00 -2.57326e-01  -1.02524e+00  -4.39101e-01
Si    1.07229e+01   1.09283e+01   5.48272e+00 -1.24405e+00  -1.00101e-01  -1.87092e-02
Si    2.66825e+00   2.66224e+00   5.36538e+00  7.45025e-01  -2.95203e-01  -2.52478e-01
Si   -6.32159e-03   2.90824e+00   8.21851e+00  8.58126e-01  -1.40903e+00   7.13725e-01
Si    2.63488e+00   9.92637e-02   8.05970e+00  2.26827e-01  -3.13825e-01  -3.41481e-01
Si    1.17526e+00   1.51725e+00   6.73795e+00  1.03555e+00  -6.78086e-01   7.76667e-01
Si    4.09275e+00   4.01488e+00   6.62430e+00  8.10543e-01  -5.86173e-01  -6.27184e-01
Si    1.44392e+00   4.12582e+00   9.60183e+00  5.88837e-01  -8.86128e-02  -5.50529e-01
Si    4.01610e+00   1.29266e+00   9.56431e+00 -2.57368e-01   4.33948e-01  -1.84298e-01
Si    5.59604e+00  -7.88289e-02   5.49362e+00 -1.02249e+00  -5.42110e-01  -2.94065e-01
Si    8.07505e+00   2.88225e+00   5.55308e+00 -4.10920e-01  -9.08438e-01  -4.14771e-01
Si    5.29543e+00   2.68714e+00   8.18257e+00  1.07813e+00   5.79567e-01   9.10165e-02
Si    8.31642e+00   1.03201e-01   8.25015e+00 -1.62507e+00  -9.74569e-01  -1.07880e-01
Si    6.79001e+00   1.38504e+00   6.93228e+00  5.70060e-01   3.07206e-02  -5.33188e-01
Si    9.54048e+00   4.12009e+00   6.88890e+00  6.87888e-01   3.46428e-01  -2.93134e+00
Si    6.82534e+00   4.08624e+00   9.47112e+00 -1.53674e+00  -1.14350e+00   2.90203e-01
Si    9.64390e+00   1.43342e+00   9.60437e+00 -9.38968e-01   1.29737e+00   7.85956e-02
Si    1.08758e+01   5.37903e+00   5.17525e+00 -3.30313e-01   3.10146e-01   2.79183e+00
Si    2.49637e+00   8.15427e+00   5.51282e+00  1.05517e+00   9.55518e-01  -5.78733e-01
Si    1.08681e+01   8.13067e+00   8.14272e+00  3.76739e-02  -6.07121e-01   2.11088e-01
Si    2.87732e+00   5.29754e+00   7.96709e+00 -2.19641e+00   1.66579e+00   2.08590e+00
Si    1.29154e+00   6.72001e+00   6.78413e+00  5.37817e-03  -1.34010e+00  -2.06554e-01
Si    4.04147e+00   9.43042e+00   6.79645e+00  3.03244e-01   4.40997e-01   4.15109e-01
Si    1.34118e+00   9.56200e+00   9.40403e+00  7.44155e-01  -2.97037e-01   1.08770e+00
Si    4.12776e+00   6.70096e+00   9.47793e+00 -7.35680e-01  -8.14476e-01   1.60481e-01
Si    5.34087e+00   5.51378e+00   5.22983e+00 -5.66531e-01   3.13376e-01   1.75376e+00
Si    8.19194e+00   8.10501e+00   5.44135e+00 -1.16631e+00  -6.85332e-01   5.49639e-01
Si    5.44090e+00   8.01004e+00   8.21367e+00  4.65617e-01   1.30865e+00  -1.39387e+00
Si    8.21418e+00   5.29610e+00   8.17060e+00 -7.91508e-01   2.32438e+00   2.15898e-01
Si    6.75879e+00   6.62451e+00   6.81345e+00  6.26785e-01   8.33782e-01  -7.48906e-01
Si    9.44588e+00   9.41839e+00   6.88226e+00  5.87728e-01   1.42403e+00  -6.64541e-01
Si    6.83122e+00   9.46148e+00   9.49206e+00 -1.51579e-01   9.65246e-01  -3.59157e-01
Si    9.58086e+00   6.70324e+00   9.48162e+00  2.27612e-01  -2.44688e-01  -1.56828e-02
