64
Lattice="10.862 0 0 0 10.862 0 0 0 10.862 " PBC="1 1 1" Properties=species:S:1:pos:R:3:force:R:3 Energy="-267.89505"
Si    3.15917e-02   4.07149e-02   1.64186e-01 -1.01023e+00  -6.50955e-01  -1.42290e+00
Si    2.68352e+00   2.80220e+00  -4.08388e-02  1.15564e+00  -1.18646e-01  -7.34236e-01
Si    1.09570e+01   2.80022e+00   2.81172e+00 -9.49821e-01  -3.92938e-02  -1.46675e+00
Si    2.63139e+00   8.65539e-03   2.54700e+00  1.13442e+00  -2.37550e-01   4.08060e-01
Si    1.36642e+00   1.53108e+00   1.30810e+00 -2.87106e-01  -6.09178e-01   9.08442e-01
Si    4.06990e+00   4.18539e+00   1.29531e+00 -1.39891e+00  -3.24430e-01   1.14082e+00
Si    1.41094e+00   4.11412e+00   4.12934e+00 -1.52256e-01   1.82538e-01   5.23595e-01
Si    3.82880e+00   1.35514e+00   4.06152e+00  1.20793e+00   2.29204e-01  -8.87221e-01
Si    5.58069e+00   1.08783e+01   1.47971e-01 -1.58919e+00  -9.30133e-01  -1.39517e+00
Si    8.16610e+00   2.67562e+00  -9.77967e-03 -4.91356e-01   1.10440e+00   5.71917e-01
Si    5.26159e+00   2.77675e+00   2.70955e+00  5.28322e-01  -1.21556e+00  -4.10841e-01
Si    8.11408e+00   1.09388e+01   2.84871e+00 -7.65853e-01  -4.46743e-01  -7.74194e-01
Si    6.79872e+00   1.42114e+00   1.37506e+00  6.33524e-02   7.00929e-01   1.77586e+00
Si    9.46984e+00   4.07700e+00   1.37105e+00  1.23229e+00  -2.67718e-01   3.29921e-02
Si    6.78140e+00   4.00948e+00   3.96142e+00 -4.78512e-01  -7.10855e-02   2.06109e+00
Si    9.60428e+00   1.38650e+00   4.06853e+00 -7.05468e-01   5.30729e-01   1.12049e-01
Si    1.08157e+01   5.44669e+00   1.07821e+01  6.89487e-01   1.84266e-01   6.99593e-01
Si    2.83240e+00   8.14658e+00   1.09347e+01 -1.87558e-02  -6.41820e-01   1.26575e-01
Si   -1.29751e-01   8.29844e+00   2.71679e+00  2.39322e-01  -5.34295e-01  -3.29201e-01
Si    2.64437e+00   5.51340e+00   2.78926e+00 -8.80888e-02  -5.27198e-01  -2.29147e+00
Si    1.27718e+00   6.92226e+00   1.37089e+00  9.93430e-03  -1.00644e+00  -2.44820e-03
Si    4.26533e+00   9.39069e+00   1.43937e+00 -1.17778e+00   1.34697e+00  -4.16021e-01
Si    1.33660e+00   9.61294e+00   4.00213e+00 -5.67518e-01  -4.06582e-01   3.09732e-01
Si    3.99314e+00   6.79897e+00   4.01399e+00  4.62878e-01   1.24593e-01   1.33121e+00
Si    5.54667e+00   5.37151e+00   1.09115e+01  1.69863e-01   3.54765e-01  -1.54837e+00
Si    8.09776e+00   8.06584e+00  -1.01246e-01  8.44173e-01   1.29319e+00   3.65094e-01
Si    5.51319e+00   7.90558e+00   2.66511e+00  1.83898e-01   1.35594e+00   8.00864e-01
Si    8.22525e+00   5.36060e+00   2.85152e+00 -8.04616e-01   7.53460e-01  -2.34321e+00
Si    6.93147e+00   6.71603e+00   1.29909e+00 -6.29336e-02  -1.23633e+00   1.20908e+00
Si    9.27645e+00   9.55123e+00   1.36209e+00  1.23136e+00   1.27992e-01  -2.10530e-01
Si    6.71454e+00   9.41474e+00   4.07493e+00 -4.01719e-01   9.64288e-01  -1.21809e+00
Si    9.44411e+00   6.85171e+00   4.04514e+00  2.76822e-01   7.51028e-01   1.47063e+00
Si    1.08682e+01   1.09364e+01   5.41121e+00  3.41464e-01  -6.46520e-01   1.59026e-01
Si    2.65866e+00   2.70889e+00   5.52256e+00 -3.99381e-01  -3.67355e-01   8.52376e-01
Si   -9.11332e-02   2.68553e+00   8.13537e+00 -2.93651e-01   6.90678e-01   7.30953e-01
Si    2.67280e+00   6.86570e-03   8.15686e+00  6.56685e-01  -1.53448e+00   8.49123e-01
Si    1.21878e+00   1.31935e+00   6.91659e+00  1.53093e+00   5.19646e-01  -1.45229e+00
Si    4.19689e+00   3.90886e+00   6.88676e+00 -1.04042e+00   1.19827e+00  -1.68196e+00
Si    1.33316e+00   4.06093e+00   9.38314e+00 -1.28462e-01   4.52531e-01   5.26353e-01
Si    4.10308e+00   1.26992e+00   9.57238e+00 -1.94626e-01   5.67088e-01   4.78662e-01
Si    5.32425e+00   9.99297e-03   5.26478e+00 -3.31393e-02  -6.98786e-01   2.05335e+00
Si    8.20911e+00   2.69737e+00   5.41752e+00 -7.61576e-01   3.73679e-01   1.12087e-01
Si    5.49038e+00   2.61609e+00   8.22246e+00  5.98819e-01  -3.49285e-01   2.89410e-01
Si    8.30720e+00  -8.58298e-02   8.13102e+00 -2.83276e+00   1.95834e+00   1.06397e+00
Si    6.77274e+00   1.29566e+00   6.76614e+00  7.62089e-01  -5.70463e-01  -3.05862e-01
Si    9.57367e+00   4.15317e+00   6.74081e+00 -6.26519e-01  -1.15089e+00  -4.81244e-02
Si    6.90858e+00   4.06490e+00   9.43959e+00 -2.69850e-01   1.28024e-01   3.83402e-01
Si    9.45569e+00   1.35290e+00   9.57473e+00  1.64204e+00  -9.43460e-01  -4.64079e-01
Si    1.08482e+01   5.46653e+00   5.36789e+00  1.98429e-01   6.42285e-01  -8.73013e-03
Si    2.58268e+00   8.15706e+00   5.37578e+00  1.23366e+00   2.04961e-01   2.20175e-01
Si    1.08761e+01   8.15096e+00   8.07574e+00  5.04299e-01   1.29955e+00   8.49427e-01
Si    2.77575e+00   5.36746e+00   8.04399e+00 -9.07155e-02   7.70470e-01   1.01436e+00
Si    1.30967e+00   6.78788e+00   6.77200e+00  6.99211e-01  -6.05869e-01  -4.44354e-01
Si    4.09875e+00   9.36201e+00   6.83777e+00 -5.77595e-01   1.30253e+00  -8.69826e-01
Si    1.40672e+00   9.41703e+00   9.65623e+00 -8.15552e-01   1.31592e+00  -1.33010e+00
Si    4.13153e+00   6.73483e+00   9.56352e+00 -2.34339e-01  -7.28081e-01  -3.71595e-01
Si    5.34709e+00   5.38209e+00   5.34598e+00  9.91045e-01  -2.85496e-01   7.29270e-01
Si    8.00569e+00   8.22529e+00   5.46876e+00  2.38321e+00  -4.91271e-01   1.17453e-01
Si    5.51843e+00   8.03331e+00   8.21209e+00 -3.98513e-01   8.07449e-01  -2.33984e-01
Si    8.28916e+00   5.49781e+00   8.10355e+00 -1.31536e+00  -6.19295e-01  -3.17510e-01
Si    6.81044e+00   6.75124e+00   6.74955e+00 -6.62299e-01  -7.62613e-01   8.36452e-02
Si    9.54316e+00   9.61059e+00   6.77241e+00  4.40477e-01  -2.32363e+00  -1.43529e+00
Si    6.80693e+00   9.54565e+00   9.52153e+00  3.28351e-01  -5.30654e-01  -5.78746e-01
Si    9.55395e+00   6.86002e+00   9.41370e+00 -1.15527e-01  -3.63599e-01   6.32457e-01
