64
Lattice="10.862 0 0 0 10.862 0 0 0 10.862 " PBC="1 1 1" Properties=species:S:1:pos:R:3:force:R:3 Energy="-267.74333"
Si    5.00969e-02   1.50500e-02   1.07881e-02 -6.17572e-01  -1.07746e-01  -5.24456e-01
Si    2.70954e+00   2.74070e+00   4.49167e-02 -3.35498e-01  -6.32024e-01  -3.00554e-01
Si    1.07626e+01   2.75363e+00   2.68896e+00  1.66672e-01  -1.43199e+00   5.77109e-01
Si    2.68217e+00   9.90227e-02   2.80776e+00  1.49686e-01  -1.47054e+00  -7.20328e-01
Si    1.35029e+00   1.39507e+00   1.42114e+00 -4.01732e-01   2.27357e-01  -4.89769e-01
Si    4.20056e+00   3.92284e+00   1.35291e+00  5.57734e-01   5.86765e-01   1.02254e+00
Si    1.32163e+00   3.95425e+00   4.07860e+00 -1.01911e+00   1.94713e+00   6.52018e-02
Si    4.02254e+00   1.50303e+00   4.01633e+00  9.30622e-01  -6.29684e-02   3.79127e-01
Si    5.32896e+00   1.08522e+01   1.11558e-01  4.84451e-01   8.27445e-01  -2.01029e+00
Si    8.05544e+00   2.74270e+00  -1.14307e-01  7.60783e-01  -1.91412e+00   1.03353e+00
Si    5.71516e+00   2.58004e+00   2.71847e+00 -1.79379e+00   8.45733e-01  -4.12597e-01
Si    8.14096e+00   1.07742e+01   2.65013e+00  2.40039e+00  -3.97869e-01   1.10602e+00
Si    6.91335e+00   1.16073e+00   1.31398e+00 -8.95439e-01   2.09256e+00  -1.02703e+00
Si    9.32378e+00   3.98786e+00   1.35511e+00 -1.47914e-01   1.57514e+00   7.01612e-01
Si    6.93237e+00   4.08545e+00   4.03174e+00 -1.57153e-01  -1.60890e-01   4.14865e-01
Si    9.57602e+00   1.21523e+00   4.10237e+00 -2.65423e-01   3.40657e-02  -1.19992e+00
Si    1.07981e+01   5.29600e+00   1.09843e+01 -2.63828e-01   7.99347e-01  -2.44742e+00
Si    2.61395e+00   8.23808e+00   1.08797e+01 -3.87625e-02  -5.61866e-01  -7.61136e-01
Si    1.98341e-01   7.98496e+00   2.77588e+00 -5.82761e-01   8.45326e-01  -1.02905e+00
Si    2.77364e+00   5.22495e+00   2.74158e+00  5.57780e-02  -1.77530e-01  -5.70988e-01
Si    1.49187e+00   6.57753e+00   1.30974e+00 -6.67082e-01   8.36463e-01   8.36748e-01
Si    4.00230e+00   9.56077e+00   1.32132e+00 -1.36956e+00   1.84002e-01   1.61600e+00
Si    1.47821e+00   9.39486e+00   4.16935e+00 -1.88807e-01   7.15778e-01  -6.29861e-01
Si    4.07905e+00   6.64904e+00   4.00560e+00  1.81237e+00   1.00466e+00   1.64044e-01
Si    5.47585e+00   5.51657e+00   1.10149e+01 -6.62823e-01  -9.36917e-01  -1.68343e+00
Si    8.04489e+00   8.30233e+00   9.20478e-02 -1.77120e-02   3.57320e-01  -3.34496e-01
Si    5.38694e+00   8.28733e+00   2.63667e+00 -1.12285e+00  -5.90749e-01   1.94862e+00
Si    8.03481e+00   5.64759e+00   2.68131e+00  1.51374e+00  -1.01324e+00  -1.38205e-01
Si    6.69397e+00   7.03029e+00   1.34816e+00  6.90510e-01  -1.32925e+00   5.63336e-01
Si    9.59888e+00   9.41025e+00   1.36639e+00  7.62860e-01   4.18335e-01   8.42904e-01
Si    6.76727e+00   9.60702e+00   4.04019e+00 -5.83863e-01  -7.04617e-01  -5.50240e-01
Si    9.53067e+00   6.86802e+00   4.11506e+00 -2.48028e-01  -1.16601e+00  -1.25723e+00
Si    1.09130e+01   1.07355e+01   5.50113e+00  4.46058e-01   4.66571e-01  -1.85949e+00
Si    2.63854e+00   2.73833e+00   5.43986e+00  1.52688e+00   5.72545e-01   2.31525e-01
Si   -2.26402e-02   2.61958e+00   8.05464e+00  2.26071e-01   3.56070e-01   9.47902e-01
Si    2.73321e+00   2.32706e-02   8.02458e+00 -5.77388e-01   1.40736e-01   5.32753e-02
Si    1.28072e+00   1.38200e+00   6.66441e+00  1.17453e+00  -1.01226e+00   1.27037e+00
Si    4.08796e+00   4.21288e+00   6.74526e+00 -2.30614e-01  -1.17235e+00   8.49488e-01
Si    1.37535e+00   3.95277e+00   9.41543e+00 -1.23284e+00   9.84615e-01   1.23272e+00
Si    3.95325e+00   1.34590e+00   9.54277e+00  1.48072e+00   1.05206e-01  -5.75071e-01
Si    5.46604e+00   1.90193e-01   5.30048e+00  1.98969e-02  -5.38483e-01   1.13028e+00
Si    8.22194e+00   2.60499e+00   5.35964e+00  3.16586e-02   9.26022e-01   8.19473e-01
Si    5.46685e+00   2.67481e+00   8.11223e+00 -1.58991e+00   1.01602e+00   6.74397e-01
Si    8.14649e+00   2.63573e-02   8.11410e+00 -4.16872e-01  -1.22718e+00   4.99469e-01
Si    6.84182e+00   1.37326e+00   6.81769e+00 -2.04203e-01   1.69501e-01  -1.34475e+00
Si    9.54918e+00   3.99058e+00   6.77771e+00 -1.66084e+00   9.23014e-01   3.44696e-01
Si    6.76787e+00   4.08575e+00   9.50772e+00 -1.95111e+00   3.15196e-01   4.93297e-01
Si    9.46679e+00   1.34602e+00   9.45668e+00  6.16605e-01   8.21091e-02   6.62582e-01
Si    1.07865e+01   5.44982e+00   5.45552e+00  1.37383e+00  -3.84612e-01  -1.33860e-01
Si    2.88486e+00   8.05880e+00   5.42493e+00 -2.16713e-01   6.84969e-01   1.43741e+00
Si    1.06252e+01   8.15133e+00   8.16968e+00  6.85724e-01   2.56017e-01  -2.13742e-01
Si    2.64844e+00   5.50647e+00   8.23206e+00  6.59468e-01   1.88149e-01  -8.79042e-01
Si    1.26193e+00   6.90540e+00   6.83387e+00  5.77246e-01  -1.05044e+00  -2.25410e-01
Si    4.29177e+00   9.61348e+00   6.77856e+00 -1.19712e+00  -1.08498e+00  -6.86507e-01
Si    1.27399e+00   9.52578e+00   9.32550e+00  4.22432e-01   5.70909e-02   1.21378e+00
Si    4.05496e+00   6.85354e+00   9.63175e+00  4.57349e-02  -3.53184e-01  -5.14983e-01
Si    5.62610e+00   5.44575e+00   5.44981e+00 -1.15539e+00   6.45468e-02  -6.64694e-01
Si    8.10650e+00   8.17681e+00   5.28293e+00  1.02932e-01   7.79064e-01   1.82048e+00
Si    5.49231e+00   8.11110e+00   8.19785e+00 -4.70857e-01   5.22129e-01  -3.91915e-02
Si    8.11571e+00   5.37935e+00   8.29031e+00  1.31775e+00   6.93169e-01  -1.91825e+00
Si    6.90489e+00   6.83044e+00   6.83248e+00 -7.14307e-02  -3.13235e-01  -4.95614e-02
Si    9.47465e+00   9.53526e+00   6.69066e+00 -1.47681e+00  -9.88925e-01   1.05348e+00
Si    6.70233e+00   9.55846e+00   9.56791e+00  5.26520e-01   6.90256e-01  -6.72318e-01
Si    9.25618e+00   6.93760e+00   9.65784e+00  2.31215e+00  -2.50645e+00  -1.42419e-01
