64
Lattice="10.862 0 0 0 10.862 0 0 0 10.862 " PBC="1 1 1" Properties=species:S:1:pos:R:3:force:R:3 Energy="-268.29851"
Si   -1.32418e-01  -5.64852e-02  -1.55396e-01  2.77905e-01   7.43069e-01   1.25419e+00
Si    2.70317e+00   2.61503e+00   2.67881e-01  5.66029e-01   2.72973e-01  -1.28208e+00
Si    1.07486e+01   2.58974e+00   2.62304e+00  8.23051e-01   1.91668e+00   2.16097e-02
Si    2.80420e+00  -7.70874e-02   2.67484e+00 -2.77564e-01   9.61380e-01   8.72405e-01
Si    1.24428e+00   1.17557e+00   1.40815e+00  2.53927e-01  -2.24953e-01  -7.04606e-01
Si    4.14721e+00   4.10216e+00   1.51206e+00 -6.96839e-01   6.67277e-01  -1.85418e+00
Si    1.37560e+00   4.08683e+00   3.89285e+00 -8.17520e-01  -1.33752e+00   7.91685e-01
Si    4.15172e+00   1.42211e+00   4.08944e+00  2.87389e-01  -1.68679e+00  -2.85640e-01
Si    5.52475e+00   1.09354e+01  -1.31916e-01 -8.04015e-01   3.97742e-01   9.63094e-01
Si    8.08044e+00   2.66217e+00  -3.03506e-02 -6.85612e-01   1.07306e+00  -1.33771e+00
Si    5.49611e+00   2.72478e+00   2.69748e+00  3.07721e-01  -5.77213e-02   1.27451e+00
Si    8.20199e+00   1.08791e+01   2.61142e+00  1.51954e-01   7.19832e-01   7.12507e-01
Si    6.80892e+00   1.40231e+00   1.36107e+00 -3.23320e-01  -1.11184e+00  -5.69361e-01
Si    9.34648e+00   3.98649e+00   1.25790e+00  1.24541e+00   6.03573e-01   1.21936e+00
Si    6.83792e+00   4.00728e+00   4.13999e+00  1.90511e-01   4.54601e-01  -2.56905e-01
Si    9.49726e+00   1.37218e+00   4.05046e+00 -9.56657e-01  -3.30119e-01  -1.91525e-01
Si    1.07659e+01   5.41649e+00   1.08992e+01  1.87822e+00  -1.60853e+00   8.93897e-01
Si    2.61180e+00   8.15293e+00   1.08891e+01  5.04809e-01   3.75119e-01  -3.99272e-01
Si   -3.88510e-02   8.18896e+00   2.73660e+00  4.35628e-01  -4.62770e-01   5.26192e-01
Si    2.74106e+00   5.52173e+00   2.72737e+00  4.58693e-01   9.23706e-01   3.84556e-01
Si    1.26812e+00   6.83497e+00   1.43405e+00  3.64604e-01  -7.23098e-01  -9.13410e-01
Si    4.12643e+00   9.58085e+00   1.19462e+00 -3.17969e-02  -2.33901e-01   3.73347e-01
Si    1.39591e+00   9.49260e+00   4.08047e+00  3.99429e-01  -3.82526e-01  -2.82972e-01
Si    4.08063e+00   7.00557e+00   4.14968e+00  1.35837e+00  -1.49608e+00  -1.26460e+00
Si    5.37952e+00   5.54279e+00   1.08286e+01 -9.06048e-01  -7.14956e-01   9.98533e-01
Si    8.01088e+00   8.11937e+00   9.47034e-02  1.65348e+00   7.94259e-02  -2.29464e-02
Si    5.51423e+00   8.44861e+00   2.72647e+00 -1.28164e+00  -1.64751e+00   2.71423e-01
Si    8.10508e+00   5.40992e+00   2.66943e+00 -7.52304e-01  -2.67467e-01  -2.23604e-01
Si    6.64507e+00   6.89715e+00   1.37850e+00  5.16439e-01  -1.03228e+00   1.19604e+00
Si    9.47930e+00   9.44313e+00   1.34386e+00 -2.07219e-01   4.14718e-01  -7.23846e-01
Si    6.96611e+00   9.62928e+00   4.07931e+00 -1.40136e-01  -8.63107e-01   7.34661e-01
Si    9.67429e+00   6.53402e+00   3.96403e+00 -1.99294e+00   2.34874e+00   4.69347e-01
Si    1.08376e+01   1.08737e+01   5.26577e+00  6.26901e-01  -4.10960e-01   1.95294e+00
Si    2.75415e+00   2.77856e+00   5.33002e+00 -7.13010e-01   1.22777e-01   6.43394e-02
Si    5.92229e-02   2.63080e+00   8.04904e+00  9.27227e-01   8.97750e-01   1.42534e+00
Si    2.65412e+00  -3.08650e-03   8.09765e+00  6.80280e-01   7.71425e-01  -1.42832e-01
Si    1.37739e+00   1.38209e+00   6.66072e+00  1.17788e-01  -8.14240e-01  -6.15104e-01
Si    4.00956e+00   4.16434e+00   6.72307e+00  1.39721e-01  -7.30959e-01   6.81698e-01
Si    1.39579e+00   3.89406e+00   9.60797e+00 -3.88918e-01   1.67252e+00  -6.17343e-01
Si    4.01343e+00   1.39031e+00   9.47710e+00 -6.89563e-01  -4.22689e-01   8.32734e-01
Si    5.58331e+00   3.66920e-03   5.52155e+00 -1.15475e+00   4.01587e-01  -1.81887e+00
Si    8.23247e+00   2.67930e+00   5.54032e+00  2.46024e-01   9.72623e-01  -5.02409e-01
Si    5.27783e+00   2.75276e+00   8.14637e+00  1.59525e+00   3.95497e-01  -9.21674e-01
Si    8.19695e+00  -1.84270e-02   8.26397e+00 -8.30883e-02  -2.31176e-01  -2.10395e+00
Si    6.82991e+00   1.36615e+00   6.77729e+00 -6.84812e-05   3.83557e-01   2.63044e+00
Si    9.59344e+00   4.07900e+00   6.96392e+00 -1.21112e+00  -1.81187e-01  -1.68323e+00
Si    6.67920e+00   4.14487e+00   9.52870e+00  4.02324e-01  -1.13291e+00  -3.37699e-01
Si    9.50164e+00   1.49872e+00   9.40806e+00 -1.86689e-01  -1.58917e+00   9.40114e-01
Si    1.08500e+01   5.26863e+00   5.40116e+00  1.34673e+00  -6.70526e-02   3.36919e-01
Si    2.73619e+00   8.15963e+00   5.54943e+00 -3.97585e-01   1.14338e+00  -3.65657e-01
Si    1.09292e+01   8.08286e+00   8.19661e+00 -1.05046e+00  -8.40130e-01  -2.87786e-01
Si    2.68845e+00   5.46899e+00   8.13163e+00 -8.03131e-01  -1.74465e+00   5.82021e-01
Si    1.36467e+00   6.68145e+00   6.69906e+00 -7.86762e-01   7.42572e-01   8.41592e-01
Si    4.16100e+00   9.57877e+00   6.82051e+00 -7.01394e-01  -7.98452e-01   5.56470e-01
Si    1.32834e+00   9.55191e+00   9.47020e+00  2.73777e-01  -8.85482e-01   7.12460e-02
Si    3.95564e+00   6.80535e+00   9.47372e+00 -3.76967e-02   3.40060e-01   1.14402e+00
Si    5.45131e+00   5.40771e+00   5.44652e+00 -2.21347e-01   1.08828e+00  -9.74470e-01
Si    8.24422e+00   8.03300e+00   5.38016e+00  4.65967e-01   7.60875e-03  -6.64189e-01
Si    5.35822e+00   8.16414e+00   8.28990e+00  1.51389e+00  -9.24137e-02  -1.86306e+00
Si    8.13676e+00   5.42867e+00   8.20727e+00  1.20668e-01   4.23307e-01   4.58364e-01
Si    6.81257e+00   6.76514e+00   6.76243e+00 -5.07143e-01   7.04702e-01   1.26906e+00
Si    9.57495e+00   9.44275e+00   6.76182e+00 -2.35453e-01   5.20891e-01   4.08738e-01
Si    6.84338e+00   9.46863e+00   9.58431e+00 -6.00133e-01   2.91849e-01  -1.09938e+00
Si    9.45428e+00   6.74861e+00   9.72745e+00 -4.88186e-01   1.29036e+00  -2.84309e+00
