64
Lattice="10.862 0 0 0 10.862 0 0 0 10.862 " PBC="1 1 1" Properties=species:S:1:pos:R:3:force:R:3 Energy="-267.1963"
Si    2.36994e-02   8.12432e-02   8.51644e-02 -8.18917e-01  -7.76983e-01  -1.41147e-01
Si    2.67767e+00   2.77102e+00   3.72585e-02 -1.61780e-01  -7.79261e-01  -1.06550e-01
Si    1.09448e+01   2.66966e+00   2.85876e+00 -9.09219e-01  -7.61806e-01  -4.23554e-01
Si    2.84251e+00  -2.36852e-01   2.66346e+00 -1.56127e+00   2.78218e-01   2.73822e-01
Si    1.44836e+00   1.21870e+00   1.49383e+00  8.01404e-02   1.74959e+00  -4.32883e-01
Si    4.07099e+00   4.08305e+00   1.35483e+00  2.88450e-01  -7.82600e-01   2.67280e-01
Si    1.35949e+00   4.01363e+00   4.22563e+00  7.70882e-01   1.09734e+00  -1.72372e+00
Si    4.03907e+00   1.04961e+00   4.05023e+00  5.12144e-01   2.78315e+00   5.47426e-01
Si    5.51225e+00   1.08856e+01   1.24746e-01  9.40927e-01   9.61335e-01  -9.99063e-01
Si    8.22635e+00   2.76437e+00   1.31042e-01  9.64549e-01  -4.21233e-01  -5.04458e-01
Si    5.36343e+00   2.63756e+00   2.78381e+00 -6.49803e-01   9.19802e-01   2.93016e-01
Si    8.09665e+00   1.08805e+01   2.69090e+00 -3.68035e-01   2.49253e-01   5.59762e-01
Si    6.81046e+00   1.50647e+00   1.43754e+00  8.81299e-02  -1.37150e+00  -2.42776e-01
Si    9.70063e+00   4.10768e+00   1.37939e+00 -4.54741e-01   5.68932e-01   9.93774e-01
Si    6.64804e+00   4.19863e+00   4.06863e+00  2.54217e-02  -1.03822e+00   9.02695e-01
Si    9.37041e+00   1.34585e+00   4.19780e+00  7.33397e-01   4.94946e-01  -8.29383e-01
Si    1.10014e+01   5.59735e+00   1.08523e+01 -1.64819e+00  -7.16547e-01  -7.76228e-01
Si    2.89592e+00   8.21058e+00   1.07379e+01 -4.49496e-01  -3.65776e-02   2.42702e-01
Si   -9.12199e-02   8.22845e+00   2.71963e+00  9.56926e-01  -1.79966e-01  -8.34689e-01
Si    2.68785e+00   5.40826e+00   2.63465e+00 -1.03312e+00   4.37537e-01   9.24362e-01
Si    1.46410e+00   6.97583e+00   1.23165e+00 -2.86817e-01  -1.32384e-01   1.90731e+00
Si    4.26160e+00   9.46954e+00   1.28675e+00 -1.54348e+00  -8.35048e-01   5.82699e-02
Si    1.23427e+00   9.60735e+00   4.11817e+00  1.71248e-01  -6.99059e-01  -1.33143e+00
Si    3.97043e+00   6.82660e+00   4.00502e+00 -9.38363e-01   4.09333e-01  -5.19436e-02
Si    5.41808e+00   5.31272e+00   1.07676e+01  1.76981e+00  -1.35188e+00   9.15047e-02
Si    8.15969e+00   8.16221e+00  -1.75781e-01 -2.52633e-01  -4.19436e-01   3.66272e-01
Si    5.36946e+00   8.02093e+00   2.60837e+00  1.79319e+00  -5.29178e-01  -3.49033e-01
Si    8.19327e+00   5.41370e+00   2.85266e+00  3.02890e-01   4.23969e-01  -2.27129e+00
Si    6.86352e+00   6.66410e+00   1.15927e+00 -1.06977e-01   5.13978e-01   1.70431e+00
Si    9.38070e+00   9.53710e+00   1.30029e+00  1.01053e+00  -2.25400e-02  -3.23071e-02
Si    6.65741e+00   9.47663e+00   3.93469e+00  1.71938e+00  -1.00807e+00   4.27720e-01
Si    9.53864e+00   6.84281e+00   4.14003e+00  6.45901e-01  -1.19355e+00   1.50637e-03
Si    1.07249e+01   1.08092e+01   5.51433e+00 -3.28429e-01   7.27873e-01   2.67486e-01
Si    2.71557e+00   2.61061e+00   5.39269e+00  6.61877e-01  -1.04235e+00   3.95761e-01
Si    2.41500e-02   2.76148e+00   8.12142e+00 -3.92692e-01   1.34917e-01   8.89106e-01
Si    2.66634e+00   1.08461e-01   8.16895e+00  6.38941e-02  -9.10971e-01   6.16661e-01
Si    1.25301e+00   1.35511e+00   6.74557e+00  6.90499e-01   3.43849e-02   2.77638e-01
Si    4.11357e+00   3.90913e+00   6.78877e+00 -7.40652e-01   1.65875e+00  -8.00636e-01
Si    1.37368e+00   4.21980e+00   9.45321e+00  5.21581e-01  -1.12437e+00   1.40897e-01
Si    4.13258e+00   1.32634e+00   9.64485e+00 -7.86266e-01   6.98014e-01  -1.06140e+00
Si    5.48763e+00  -9.49531e-02   5.40240e+00 -8.03691e-01  -2.52497e-01   9.86794e-01
Si    8.06524e+00   2.84080e+00   5.49243e+00 -4.48700e-01  -5.44285e-01  -5.66076e-01
Si    5.45342e+00   2.57210e+00   8.06459e+00  2.86097e-01  -3.43993e-01   1.59847e+00
Si    8.17448e+00  -2.26579e-02   8.25970e+00 -4.42446e-01   1.39691e+00  -6.11957e-01
Si    6.83002e+00   1.27410e+00   6.75999e+00  3.44952e-01  -1.31082e-01   1.80657e-02
Si    9.43384e+00   4.09082e+00   6.88827e+00  2.69907e-01   8.01313e-01  -4.58501e-01
Si    6.93037e+00   3.82260e+00   9.44664e+00 -2.17783e+00   1.89695e+00   2.03392e-01
Si    9.53507e+00   1.40897e+00   9.54139e+00  2.15908e-01   1.80332e-01   3.87116e-01
Si    1.09228e+01   5.39579e+00   5.54015e+00 -1.02085e+00   9.07042e-01  -1.20034e-01
Si    2.61308e+00   8.28174e+00   5.35174e+00  1.40204e+00  -5.93706e-01   3.05814e-01
Si    1.08720e+01   8.15930e+00   8.09076e+00  6.98948e-01  -1.20486e-01   9.68965e-01
Si    2.80470e+00   5.46916e+00   8.07776e+00 -1.40117e-01  -5.84287e-01  -3.03256e-01
Si    1.45033e+00   6.88531e+00   6.73605e+00 -6.78526e-01  -7.74257e-01   5.59184e-01
Si    4.02031e+00   9.51620e+00   6.83232e+00  8.00557e-02   2.89171e-01  -2.86566e-01
Si    1.30340e+00   9.54057e+00   9.59527e+00  7.04147e-01   5.90308e-02  -1.40178e+00
Si    4.16914e+00   6.67685e+00   9.49688e+00 -6.50850e-01   1.25846e+00  -7.69990e-01
Si    5.25343e+00   5.57438e+00   5.41618e+00  9.64936e-01  -1.35352e+00   4.72210e-01
Si    8.15817e+00   8.15695e+00   5.38209e+00 -4.58934e-01   1.79696e+00  -1.28978e-01
Si    5.41522e+00   8.17624e+00   8.20929e+00  1.49831e-01  -4.48564e-01  -1.47310e+00
Si    7.98537e+00   5.47055e+00   8.16478e+00  5.87606e-01  -5.56283e-01  -1.23158e+00
Si    6.78106e+00   6.89610e+00   6.64923e+00 -1.34547e+00  -8.33069e-01   1.78436e+00
Si    9.42439e+00   9.48078e+00   6.95149e+00  9.08623e-02  -2.99788e-01  -1.98040e+00
Si    6.73034e+00   9.57977e+00   9.46865e+00  2.98541e-01  -4.92754e-01   1.13661e+00
Si    9.48951e+00   6.73665e+00   9.32441e+00  7.92683e-01   7.34597e-01   1.67444e+00
