64
Lattice="10.862 0 0 0 10.862 0 0 0 10.862 " PBC="1 1 1" Properties=species:S:1:pos:R:3:force:R:3 Energy="-268.97359"
Si   -3.45706e-02  -1.37304e-01  -1.45236e-02  4.09474e-02   1.71403e-01  -4.58798e-01
Si    2.59015e+00   2.71095e+00   8.69094e-03 -4.61112e-01  -3.88853e-01  -7.72137e-01
Si    1.09857e+01   2.67413e+00   2.72959e+00 -1.73701e+00   9.53122e-01   6.17687e-01
Si    2.84654e+00  -1.52194e-02   2.57030e+00 -8.00408e-01   8.20403e-01   1.63517e-01
Si    1.17611e+00   1.30685e+00   1.32159e+00  2.88813e+00  -8.35601e-01  -2.85469e-01
Si    3.89287e+00   4.16165e+00   1.23397e+00  1.26812e+00  -3.72005e-01   1.29660e+00
Si    1.40215e+00   4.06098e+00   4.12164e+00  1.58359e-01  -7.09386e-01   1.02540e+00
Si    4.15077e+00   1.43561e+00   3.98439e+00 -5.20724e-01  -5.79323e-01  -1.47836e-01
Si    5.49286e+00   1.10450e+01   2.80268e-03 -8.43899e-01  -5.52448e-01   7.60450e-01
Si    8.18913e+00   2.71666e+00   1.67458e-01 -3.09099e-01   9.73248e-01  -1.18203e+00
Si    5.44275e+00   2.86306e+00   2.64443e+00 -4.32743e-01  -3.72268e-02  -2.09483e-01
Si    8.11594e+00   1.07754e+01   2.70013e+00  8.43837e-01   1.36986e+00   3.94235e-01
Si    6.84254e+00   1.39204e+00   1.43891e+00 -5.92451e-01   2.12849e-01   2.24955e-01
Si    9.58985e+00   4.11162e+00   1.40790e+00  3.17097e-01  -1.28353e+00  -2.11441e-01
Si    6.86056e+00   4.05820e+00   4.09303e+00 -2.22142e-03   4.10125e-01  -3.34720e-01
Si    9.60313e+00   1.25493e+00   4.02648e+00 -3.57997e-01  -1.10450e-01  -1.53310e-01
Si    1.06702e+01   5.40356e+00   1.06833e+01  1.82416e+00   3.21207e-02   9.86596e-01
Si    2.76658e+00   8.10949e+00   1.09528e+01 -7.05593e-01  -1.20159e+00  -1.56729e-02
Si   -1.16764e-01   8.16574e+00   2.68276e+00  5.96460e-01  -1.80359e-02   1.42196e+00
Si    2.64943e+00   5.43470e+00   2.76190e+00 -5.97486e-01   4.01472e-01  -1.02713e+00
Si    1.10796e+00   6.74437e+00   1.40019e+00  1.96802e+00  -4.35206e-01  -1.39017e+00
Si    4.21152e+00   9.48137e+00   1.23140e+00  6.55881e-01   2.43752e-01   1.29848e+00
Si    1.47905e+00   9.49770e+00   3.94489e+00 -6.76552e-01  -6.98331e-01   2.08413e-01
Si    4.05035e+00   6.72251e+00   4.08247e+00  1.93750e+00   2.66963e-01   2.09256e-02
Si    5.40712e+00   5.43799e+00   1.08437e+01 -6.28638e-01   9.31079e-01   9.12956e-02
Si    8.09683e+00   8.08423e+00  -3.60319e-02 -2.59219e-01   5.46163e-01   1.04318e+00
Si    5.59716e+00   8.11818e+00   2.71423e+00 -1.72318e+00  -2.29616e-01   2.24621e-01
Si    8.29750e+00   5.40162e+00   2.72448e+00 -1.48199e+00  -5.50575e-01   7.95747e-01
Si    6.85959e+00   6.63826e+00   1.41217e+00 -8.93915e-02   9.17978e-01  -8.37523e-01
Si    9.42869e+00   9.47378e+00   1.35259e+00 -2.56542e-01  -6.11513e-01  -8.11023e-01
Si    6.80758e+00   9.57196e+00   4.10822e+00 -4.86976e-01  -7.64216e-01   1.37906e-02
Si    9.51037e+00   6.71481e+00   4.11162e+00 -1.02228e-01   2.06044e+00   6.62715e-01
Si    1.09141e+01   1.07180e+01   5.39939e+00  5.85972e-01   6.97812e-01  -5.58370e-01
Si    2.76532e+00   2.56887e+00   5.50839e+00 -8.70918e-01   5.23238e-01  -1.24411e+00
Si   -1.07741e-01   2.68551e+00   8.07911e+00  6.03981e-01  -1.44849e+00  -9.46129e-02
Si    2.73730e+00  -3.05359e-02   8.30714e+00  5.80837e-01   2.50889e-01  -1.51124e+00
Si    1.40039e+00   1.16389e+00   6.81545e+00 -1.01526e+00   1.21435e+00   4.48296e-01
Si    4.06114e+00   3.94886e+00   6.78808e+00  3.34369e-01   9.44192e-01   1.80191e+00
Si    1.25826e+00   3.99881e+00   9.38992e+00  4.38498e-01   1.17077e+00   6.59523e-01
Si    4.05909e+00   1.41857e+00   9.52740e+00  2.67902e-01   5.01406e-01   2.20690e-01
Si    5.43298e+00   7.97444e-02   5.39500e+00 -4.28408e-01  -3.08243e-01  -8.66048e-01
Si    8.18606e+00   2.59331e+00   5.34036e+00  6.68961e-01   9.99028e-01  -6.32612e-02
Si    5.56401e+00   2.69985e+00   8.19767e+00 -1.61372e+00  -2.83968e-01  -1.02117e+00
Si    8.00586e+00   9.77920e-02   8.14019e+00  1.64263e+00  -1.13788e+00   4.67444e-01
Si    6.78491e+00   1.36885e+00   6.64400e+00 -5.99651e-02   5.32638e-01   1.64410e+00
Si    9.44898e+00   4.06728e+00   6.73287e+00 -4.42656e-01   6.06684e-01   1.49757e-01
Si    6.73619e+00   4.08728e+00   9.58848e+00  1.87913e+00  -3.34691e-01   2.91672e-02
Si    9.46424e+00   1.35747e+00   9.62384e+00 -1.14144e-01  -2.33496e-01  -1.35713e+00
Si    1.09212e+01   5.49221e+00   5.48711e+00 -1.07396e-01  -1.06094e+00  -1.33201e-01
Si    2.79415e+00   8.15101e+00   5.39807e+00 -4.07022e-01   5.89673e-01  -2.47791e-02
Si    1.08587e+01   8.17630e+00   8.14054e+00  7.76050e-01   2.96759e-01  -1.67930e-01
Si    2.73053e+00   5.49773e+00   8.19120e+00  3.02497e-01  -1.05110e+00  -6.84675e-01
Si    1.43287e+00   6.86111e+00   6.79546e+00 -4.30046e-01  -6.05818e-02   1.92735e-01
Si    4.04867e+00   9.64773e+00   6.72632e+00 -8.10974e-02  -3.65450e-01   5.53072e-01
Si    1.50788e+00   9.40065e+00   9.54558e+00 -2.14142e+00   2.04521e-01   3.35190e-01
Si    4.14862e+00   6.94376e+00   9.43733e+00 -4.92732e-01  -1.13307e+00   9.83644e-01
Si    5.45509e+00   5.32469e+00   5.54472e+00 -2.54312e-01   1.18930e+00  -9.15890e-01
Si    8.09931e+00   8.22035e+00   5.47616e+00  4.38274e-02  -1.79049e+00   3.43489e-02
Si    5.40626e+00   8.40345e+00   8.15836e+00 -1.85408e-01  -5.13810e-01   1.29392e-01
Si    8.02392e+00   5.49915e+00   8.14303e+00  1.09317e+00  -1.14537e+00   4.71958e-01
Si    6.65646e+00   6.87073e+00   6.95814e+00  4.44091e-01   4.02037e-01  -2.14186e+00
Si    9.50882e+00   9.52432e+00   6.75908e+00 -8.40891e-01   4.19002e-01   1.32292e+00
Si    6.72055e+00   9.59612e+00   9.65341e+00  1.03625e+00  -2.05243e-02  -1.55825e+00
Si    9.45320e+00   6.87147e+00   9.42928e+00 -6.45832e-01  -5.87269e-01  -5.15447e-01
