64
Lattice="10.862 0 0 0 10.862 0 0 0 10.862 " PBC="1 1 1" Properties=species:S:1:pos:R:3:force:R:3 Energy="-268.69518"
Si   -1.63240e-01   6.80630e-03  -1.99950e-02  3.38546e-01  -7.27305e-01   5.91806e-01
Si    2.71451e+00   2.70151e+00   1.65381e-01 -5.55899e-01   2.73522e-01  -2.03219e+00
Si    1.08547e+01   2.77419e+00   2.62515e+00  5.25266e-01  -7.65305e-01  -3.01687e-01
Si    2.71990e+00  -7.68320e-02   2.66748e+00  4.12951e-01  -6.44374e-01   1.10803e-01
Si    1.34830e+00   1.23959e+00   1.28361e+00 -8.72595e-01   6.79624e-01   1.18523e+00
Si    3.99060e+00   4.05533e+00   1.48817e+00  5.26670e-01   8.78523e-01  -8.46698e-02
Si    1.43468e+00   4.01142e+00   3.98845e+00 -4.35291e-01   8.02491e-01  -2.19172e-01
Si    4.14097e+00   1.28224e+00   3.99993e+00 -1.00436e+00   6.36913e-01   6.03279e-01
Si    5.54093e+00   1.08133e+01  -5.48685e-02 -1.38837e+00   5.44768e-01   1.23054e+00
Si    8.23816e+00   2.81458e+00  -1.63033e-02 -1.06908e+00  -8.02647e-01  -3.15178e-01
Si    5.42587e+00   2.77015e+00   2.72879e+00 -9.46841e-01  -7.82190e-01  -1.68389e-01
Si    7.99849e+00   1.09795e+01   2.60808e+00  7.37406e-01  -6.53018e-01   1.61630e+00
Si    6.73164e+00   1.50246e+00   1.34297e+00  3.63473e-01  -2.09644e-01  -1.57845e+00
Si    9.53356e+00   4.18944e+00   1.32049e+00 -3.09410e-01  -1.25760e-01   8.72519e-01
Si    6.71890e+00   4.07417e+00   4.00827e+00  1.06145e+00   6.67635e-01   1.44362e+00
Si    9.42678e+00   1.48860e+00   3.96693e+00  4.45393e-01  -1.36548e+00  -9.47811e-01
Si    1.09460e+01   5.49127e+00   1.09418e+01 -1.32416e+00  -8.91938e-03  -1.63204e+00
Si    2.69560e+00   8.13288e+00   1.09440e+01  2.33262e-01   1.02932e+00  -1.51512e+00
Si   -2.22169e-01   8.28799e+00   2.76937e+00  1.12473e+00  -2.85657e-01  -1.89133e+00
Si    2.71974e+00   5.55460e+00   2.76661e+00 -5.57340e-01   3.20451e-01  -3.83428e-01
Si    1.25531e+00   6.90771e+00   1.34480e+00  4.58894e-01   2.65971e-01   2.54739e+00
Si    4.26547e+00   9.33652e+00   1.41780e+00 -1.02870e+00   1.69061e+00  -5.57180e-01
Si    1.19379e+00   9.56872e+00   4.07629e+00  5.12336e-01   6.77624e-01  -2.11378e-01
Si    4.00405e+00   6.99201e+00   4.15917e+00  1.22458e+00  -1.50755e+00  -5.27012e-01
Si    5.39412e+00   5.34072e+00   1.09780e+01  4.26856e-01  -2.15938e-01  -1.10701e+00
Si    8.06801e+00   8.07404e+00  -2.51018e-02 -2.37239e-01  -1.44091e-02  -1.17691e+00
Si    5.63429e+00   8.11133e+00   2.82399e+00 -1.21206e+00   3.34221e-02   2.86154e-01
Si    8.12506e+00   5.46245e+00   2.76087e+00  6.27919e-01   2.50004e-01  -4.78828e-01
Si    6.78652e+00   6.78670e+00   1.34200e+00  1.42557e-02  -1.11887e+00   6.22393e-01
Si    9.20456e+00   9.49937e+00   1.28724e+00  2.00216e+00   9.55708e-01   6.04947e-01
Si    6.91812e+00   9.48685e+00   4.17192e+00  6.13693e-01   1.06344e-01  -6.71531e-01
Si    9.56372e+00   6.83701e+00   4.10588e+00 -5.46897e-01  -1.57559e+00  -1.89082e-01
Si    1.07282e+01   1.10068e+01   5.38729e+00  9.59336e-01  -2.14858e-01   4.60141e-01
Si    2.67566e+00   2.69665e+00   5.39397e+00  1.83796e+00  -5.69552e-01  -4.43084e-01
Si   -7.21474e-02   2.75170e+00   8.17573e+00  8.65587e-01   4.94321e-01  -6.81485e-01
Si    2.68908e+00   1.15369e-01   8.21173e+00 -1.02705e+00  -2.22014e-01  -3.52095e-01
Si    1.31876e+00   1.45403e+00   6.78119e+00 -4.13042e-01  -6.75914e-01   3.08999e-01
Si    4.24488e+00   3.95183e+00   6.68440e+00 -8.15973e-01   2.93686e-02   4.12049e-01
Si    1.32779e+00   4.09924e+00   9.55516e+00  1.34743e+00  -4.56992e-01  -3.98588e-01
Si    4.04799e+00   1.36514e+00   9.58292e+00  8.10288e-01  -1.04677e-01   1.65717e-01
Si    5.51010e+00  -2.71490e-02   5.37778e+00 -6.31901e-01  -6.20686e-02   1.78533e+00
Si    8.12746e+00   2.65605e+00   5.34480e+00 -1.07369e+00   1.26953e+00   6.70557e-01
Si    5.51494e+00   2.47695e+00   8.07520e+00 -9.08017e-01   1.81712e+00   9.72924e-01
Si    8.27046e+00  -7.63828e-02   8.19154e+00 -9.69679e-01  -1.15557e-01   6.08166e-02
Si    6.94210e+00   1.26282e+00   6.83529e+00 -1.84800e-01  -8.38169e-01  -1.58806e+00
Si    9.46703e+00   4.02287e+00   6.67847e+00  7.65862e-01   5.77580e-01   1.47716e-01
Si    6.76308e+00   3.99662e+00   9.41744e+00 -8.10573e-01  -2.86316e-01   1.43193e+00
Si    9.51967e+00   1.36776e+00   9.46501e+00 -7.78561e-01   5.62720e-01   7.23567e-01
Si    1.09799e+01   5.39087e+00   5.31411e+00 -5.66463e-01   3.02320e-01   1.35497e+00
Si    2.55301e+00   8.22595e+00   5.42608e+00  1.23931e+00   1.64893e+00   4.00326e-01
Si    1.09608e+01   8.03665e+00   8.17571e+00 -5.27435e-01   8.39210e-01   3.63131e-02
Si    2.83826e+00   5.33308e+00   8.03469e+00 -4.75225e-01  -2.87130e-03   1.14360e+00
Si    1.47004e+00   6.80669e+00   6.76446e+00 -1.04306e+00  -1.85289e+00   1.46912e-01
Si    3.96923e+00   9.58884e+00   6.86674e+00  1.19402e+00  -1.09453e+00  -8.78905e-01
Si    1.24676e+00   9.60402e+00   9.49356e+00  1.44699e+00  -1.22267e+00   7.91025e-01
Si    4.06687e+00   6.70219e+00   9.58700e+00 -6.48485e-01  -3.28379e-01  -3.74895e-02
Si    5.46748e+00   5.51689e+00   5.42546e+00 -2.97578e-01  -1.65228e-01  -5.16308e-01
Si    8.32257e+00   8.09805e+00   5.52056e+00 -7.68631e-01   1.13528e+00   4.69125e-01
Si    5.37461e+00   8.01750e+00   8.20232e+00  1.10221e-01   1.17290e+00  -1.19937e+00
Si    8.11449e+00   5.29482e+00   8.14693e+00  1.20464e+00   1.19663e+00  -4.70532e-01
Si    6.89259e+00   6.76435e+00   6.81113e+00 -7.97776e-01   5.44026e-02   3.25787e-01
Si    9.65420e+00   9.52024e+00   6.87901e+00 -2.22601e-01  -7.04900e-01  -7.83540e-01
Si    6.75853e+00   9.44244e+00   9.44779e+00  8.74047e-01  -3.27204e-01  -1.98431e-01
Si    9.49554e+00   6.75951e+00   9.50793e+00  1.43245e-01  -8.65790e-01   1.34865e-02
