64
Lattice="10.862 0 0 0 10.862 0 0 0 10.862 " PBC="1 1 1" Properties=species:S:1:pos:R:3:force:R:3 Energy="-268.51023"
Si    1.92797e-01   8.87141e-02  -1.33569e-02 -1.50549e+00  -5.34701e-01   6.63169e-01
Si    2.62858e+00   2.75375e+00   1.17303e-01  8.57968e-01  -7.80957e-01  -7.70662e-01
Si    1.07982e+01   2.66894e+00   2.80623e+00 -4.36156e-01   5.83078e-01  -1.66963e-01
Si    2.72467e+00  -2.50791e-02   2.70686e+00 -4.26187e-02  -8.47630e-01   4.08522e-01
Si    1.34825e+00   1.43651e+00   1.56359e+00  3.92164e-01  -9.69725e-01  -1.64396e+00
Si    4.08582e+00   3.88575e+00   1.50034e+00 -1.93735e-02   1.52760e+00  -4.31004e-01
Si    1.33324e+00   4.04902e+00   3.95012e+00  4.38825e-01   7.38089e-01   5.73893e-01
Si    4.09205e+00   1.24562e+00   4.11748e+00  4.44582e-01   3.84350e-01  -4.48737e-01
Si    5.49162e+00   1.08946e+01   9.50538e-02  3.23672e-01   3.34773e-01   1.78051e-01
Si    8.28302e+00   2.86583e+00   2.35736e-02 -1.78056e+00  -1.40290e+00  -1.00041e+00
Si    5.53706e+00   2.65323e+00   2.86040e+00 -8.87861e-01   1.14653e-01   1.06312e-01
Si    8.16975e+00   1.09341e+01   2.77098e+00  3.60319e-01  -3.84629e-01  -1.11735e+00
Si    6.89691e+00   1.49927e+00   1.40456e+00  7.62664e-02  -8.57969e-01  -4.41064e-01
Si    9.66361e+00   4.04361e+00   1.30259e+00 -3.70149e-01   7.93969e-01   1.42840e+00
Si    6.71215e+00   4.19735e+00   4.15711e+00  5.92973e-01  -8.40301e-01   6.50514e-01
Si    9.39339e+00   1.43539e+00   4.18225e+00 -2.16755e-04   1.59970e-01   1.66775e-01
Si    1.08301e+01   5.52425e+00   1.08548e+01  4.24622e-01  -2.78490e-01  -7.78196e-01
Si    2.80565e+00   8.12457e+00   1.07631e+01 -7.12130e-01  -5.77028e-01  -7.86026e-01
Si    2.66991e-02   8.01228e+00   2.71402e+00 -7.14078e-01   7.89687e-01  -4.03998e-01
Si    2.62498e+00   5.46189e+00   2.59295e+00  1.32219e+00  -1.05238e+00   8.37893e-01
Si    1.39093e+00   6.80139e+00   1.26252e+00 -2.26959e-01   6.96418e-01  -3.50143e-01
Si    4.04983e+00   9.46830e+00   1.25160e+00  4.77717e-01   7.37247e-01   1.02438e+00
Si    1.28324e+00   9.45197e+00   4.04635e+00  3.66184e-01   5.08728e-01   3.93417e-01
Si    3.94087e+00   6.86189e+00   3.98319e+00  6.35874e-01  -7.80734e-01   1.65972e-01
Si    5.43472e+00   5.18540e+00   1.08732e+01 -6.65660e-01   2.06914e+00  -3.73324e-01
Si    8.23307e+00   8.26929e+00  -3.82058e-02 -8.53605e-01  -1.29728e+00   5.86304e-01
Si    5.44012e+00   8.09655e+00   2.55084e+00 -1.70130e-01  -3.78107e-02   6.31258e-01
Si    8.21454e+00   5.31339e+00   2.67990e+00 -4.78063e-01   6.96651e-01  -1.26013e-01
Si    6.86015e+00   6.71431e+00   1.23636e+00  1.30978e-01  -1.43688e-01   2.35041e-01
Si    9.58632e+00   9.54069e+00   1.35351e+00  5.81351e-01   6.20304e-01   5.38461e-01
Si    6.77098e+00   9.50378e+00   3.93453e+00  4.17328e-01  -1.13516e+00  -5.27391e-02
Si    9.53575e+00   6.63901e+00   4.10109e+00 -2.05609e-01   9.80581e-01  -8.76799e-01
Si    1.07723e+01   1.08941e+01   5.39408e+00  4.30561e-01  -5.78381e-01   6.99909e-01
Si    2.75372e+00   2.78327e+00   5.27486e+00 -8.65443e-01  -1.33443e+00   1.67002e+00
Si   -7.51599e-02   2.77084e+00   8.19326e+00  1.47890e+00   5.84474e-02   1.22083e+00
Si    2.54998e+00   7.31860e-02   8.20378e+00  2.05444e+00   4.81306e-01  -7.99391e-01
Si    1.25363e+00   1.45346e+00   6.78404e+00  6.21437e-01   4.60515e-02  -9.60580e-01
Si    4.03077e+00   3.95658e+00   6.85828e+00  1.22385e-01   2.50678e-01  -1.52827e+00
Si    1.39688e+00   4.19554e+00   9.54283e+00 -2.36086e-01  -6.13419e-01  -7.17907e-01
Si    4.12167e+00   1.33013e+00   9.62293e+00 -1.85244e+00   4.66794e-01  -4.20524e-01
Si    5.48063e+00  -1.55896e-01   5.37472e+00 -1.03479e+00   7.02173e-01   1.11490e+00
Si    8.07940e+00   2.79152e+00   5.63179e+00  3.66733e-01   7.31511e-01  -5.69157e-01
Si    5.38707e+00   2.62248e+00   8.13334e+00  8.34976e-01  -6.41853e-01   3.78680e-01
Si    8.22040e+00   4.85438e-03   8.17305e+00 -9.20293e-01  -6.77558e-01   4.35130e-01
Si    6.78701e+00   1.20318e+00   6.80823e+00 -4.34523e-01   9.55867e-01  -2.18819e-04
Si    9.59381e+00   4.21952e+00   6.96895e+00 -6.03820e-01  -7.93622e-01  -2.91971e+00
Si    6.77344e+00   4.02643e+00   9.41655e+00  1.17120e+00   4.75253e-02  -2.16651e-01
Si    9.49367e+00   1.37761e+00   9.56307e+00  9.21791e-01   5.75133e-02   3.45023e-02
Si    1.09766e+01   5.41279e+00   5.38848e+00 -3.90290e-01  -4.14707e-01   1.41687e+00
Si    2.59625e+00   8.07319e+00   5.46869e+00  8.01137e-01   1.57151e+00  -4.27940e-01
Si    1.08257e+01   8.11526e+00   8.20463e+00 -1.46529e-01   8.98504e-02  -1.32637e+00
Si    2.82397e+00   5.44489e+00   8.03547e+00 -1.06386e+00  -6.58779e-01   1.70477e+00
Si    1.39896e+00   6.75161e+00   6.87086e+00 -1.37291e+00   1.50879e-01  -7.26732e-01
Si    3.96332e+00   9.52878e+00   6.82262e+00  9.58833e-02  -6.98333e-02  -2.15880e-01
Si    1.37584e+00   9.46885e+00   9.44049e+00 -3.03288e-01  -1.23393e-01   1.32527e+00
Si    4.16107e+00   6.76628e+00   9.33296e+00  4.95602e-01  -6.20553e-01   2.34171e+00
Si    5.20751e+00   5.47411e+00   5.51258e+00  7.28914e-01   1.72821e-01  -1.06867e+00
Si    8.15587e+00   8.13551e+00   5.29866e+00 -5.75499e-01  -3.51625e-01   8.53057e-02
Si    5.46645e+00   8.26386e+00   8.17285e+00  5.78857e-02  -6.27048e-01  -1.34496e+00
Si    8.13633e+00   5.52385e+00   8.05381e+00 -1.59959e+00  -2.37311e-01   1.17425e+00
Si    6.74190e+00   6.82527e+00   6.67560e+00 -2.14540e-01   7.32003e-01   7.09049e-01
Si    9.42121e+00   9.45053e+00   6.74923e+00  1.24558e+00   2.19069e-01   3.04936e-01
Si    6.78646e+00   9.54788e+00   9.57837e+00  6.68181e-01   7.55696e-01  -6.82719e-01
Si    9.41123e+00   6.79400e+00   9.47469e+00  7.43949e-01   4.38964e-01   4.88561e-01
