64
Lattice="10.862 0 0 0 10.862 0 0 0 10.862 " PBC="1 1 1" Properties=species:S:1:pos:R:3:force:R:3 Energy="-267.60221"
Si    9.97498e-02   4.46967e-02   5.25785e-02 -1.45007e-01  -2.86132e-01   8.11592e-01
Si    2.82448e+00   2.63765e+00   7.79419e-02 -2.29807e+00   8.21805e-01   3.72106e-01
Si    1.07264e+01   2.73187e+00   2.75171e+00  9.15848e-01  -5.06501e-01   3.06557e-01
Si    2.67576e+00  -1.29054e-01   2.75093e+00  4.82540e-01   9.19564e-01   1.32483e+00
Si    1.39808e+00   1.38292e+00   1.60370e+00 -2.92586e-01  -7.22470e-03  -2.32971e+00
Si    4.17074e+00   3.88355e+00   1.41381e+00  2.33648e-01   2.34525e+00  -7.01515e-01
Si    1.24403e+00   4.05971e+00   4.01307e+00 -1.68864e-01  -1.25378e-01   1.07028e+00
Si    4.03901e+00   1.33879e+00   4.15069e+00  4.29889e-01  -1.12816e+00  -5.67125e-01
Si    5.43563e+00   1.08845e+01   1.41366e-02  5.66832e-01   2.30427e-01   1.21604e-01
Si    8.19851e+00   2.83351e+00  -2.63947e-02  1.04196e+00  -1.93094e+00   8.04672e-01
Si    5.51249e+00   2.60169e+00   2.76162e+00  1.07335e-02   1.37957e-01   8.65087e-01
Si    8.24144e+00   1.07845e+01   2.68396e+00 -4.62831e-01   3.83516e-02   7.81400e-01
Si    6.92195e+00   1.32484e+00   1.41155e+00 -3.83842e-01   2.39806e-01  -1.42886e+00
Si    9.51112e+00   4.13234e+00   1.44826e+00 -9.47247e-01   7.08764e-01  -1.03426e+00
Si    6.76440e+00   4.11158e+00   4.11314e+00  7.09878e-01   3.71044e-02  -1.11486e+00
Si    9.45422e+00   1.35712e+00   4.08815e+00  7.46686e-02  -5.30864e-01   3.69275e-01
Si    1.08991e+01   5.45766e+00   1.09587e+01  2.52995e-02  -3.91242e-01  -1.20220e+00
Si    2.85302e+00   8.19805e+00   1.07006e+01 -1.86351e+00   1.90154e-01   6.45742e-01
Si    7.52148e-02   7.98561e+00   2.78003e+00 -1.03399e-01   6.39823e-01  -1.44825e+00
Si    2.67926e+00   5.26590e+00   2.69112e+00  1.08403e+00   5.28018e-01  -3.31306e-01
Si    1.51465e+00   6.74186e+00   1.31615e+00 -1.25128e-01   1.02205e+00  -3.71579e-02
Si    4.07387e+00   9.53995e+00   1.34717e+00 -3.26964e-01   1.37071e-01  -9.75967e-01
Si    1.21013e+00   9.48569e+00   4.09838e+00  1.53554e+00  -6.93691e-01   3.89602e-01
Si    3.94864e+00   6.77814e+00   4.01374e+00  7.57133e-01   5.10735e-01  -6.84149e-01
Si    5.40723e+00   5.48352e+00   1.07495e+01  1.61723e-01  -9.39652e-01   2.06479e+00
Si    8.22117e+00   8.14840e+00  -1.26378e-01  2.79090e-01  -8.53018e-01   1.39056e+00
Si    5.39213e+00   8.22678e+00   2.62335e+00  3.58739e-01  -1.35982e+00   1.36262e+00
Si    8.08143e+00   5.60388e+00   2.64530e+00  7.45609e-01  -2.41760e+00   1.70279e+00
Si    6.82596e+00   6.86860e+00   1.30959e+00 -1.38107e+00   6.16802e-01  -1.56723e+00
Si    9.55828e+00   9.39246e+00   1.38411e+00  9.90608e-01   2.35974e-01  -7.62541e-01
Si    6.81586e+00   9.48373e+00   4.05747e+00  4.78084e-01  -5.24231e-01  -5.25777e-02
Si    9.57559e+00   6.69644e+00   4.08055e+00 -1.51907e+00   1.00139e+00  -8.69907e-01
Si    1.07907e+01   1.08277e+01   5.46194e+00 -4.95308e-01   7.57246e-01  -1.56032e-01
Si    2.58452e+00   2.69914e+00   5.38296e+00  4.13282e-01   5.57041e-01   1.30547e-01
Si    7.71831e-02   2.93623e+00   8.20180e+00 -1.87695e-01  -9.08402e-01  -1.00360e+00
Si    2.69200e+00   1.30586e-01   8.08726e+00 -2.22794e-01   1.78603e-01  -1.69448e-01
Si    1.19328e+00   1.44618e+00   6.75611e+00  9.69750e-01  -2.13281e-01   5.63423e-01
Si    4.01491e+00   4.09499e+00   6.69197e+00  3.71259e-01  -3.30416e-01   1.49408e-01
Si    1.45540e+00   4.13285e+00   9.54391e+00  7.33229e-01   1.87789e-01   1.24332e+00
Si    4.07458e+00   1.44491e+00   9.53938e+00  4.27682e-01  -1.83225e+00  -7.90018e-01
Si    5.51569e+00  -5.52645e-02   5.48472e+00 -7.52356e-01   8.58207e-01  -3.20936e-01
Si    8.16425e+00   2.73506e+00   5.46685e+00 -2.80806e-01   5.64342e-01   2.90422e-01
Si    5.37241e+00   2.75219e+00   8.16455e+00  4.54544e-01   2.33029e-01  -9.17204e-01
Si    8.15143e+00   9.39785e-02   8.27966e+00  5.31970e-01  -1.12821e+00  -2.48136e-01
Si    6.83276e+00   1.39632e+00   6.84022e+00 -6.76622e-01  -1.61826e-01   1.89101e-01
Si    9.42073e+00   4.14707e+00   6.93100e+00  3.20008e-01  -6.49664e-01  -1.30327e+00
Si    6.76416e+00   4.02832e+00   9.54392e+00 -7.64384e-01   5.61640e-01  -3.88532e-01
Si    9.77306e+00   1.45761e+00   9.47281e+00 -2.55129e+00  -3.40717e-02   1.25570e+00
Si    1.07332e+01   5.39288e+00   5.41609e+00  1.31194e+00  -1.08113e+00   1.01881e+00
Si    2.64239e+00   8.09845e+00   5.45444e+00 -8.07983e-01   3.47387e-01  -8.45217e-01
Si    1.08707e+01   8.09983e+00   8.11561e+00 -5.06085e-01   4.59500e-01   9.54119e-02
Si    2.75667e+00   5.46830e+00   8.09205e+00 -1.27017e+00  -7.09036e-01  -5.17069e-01
Si    1.25595e+00   6.72618e+00   6.75642e+00  8.13780e-01  -6.75323e-02  -4.64095e-02
Si    3.95913e+00   9.53498e+00   6.71156e+00  9.75664e-01  -1.08742e-01   9.42379e-01
Si    1.30953e+00   9.61291e+00   9.37140e+00  1.18997e+00  -1.03035e+00   1.08066e+00
Si    4.07110e+00   6.76684e+00   9.36659e+00  6.36362e-01   6.52923e-01   4.68178e-01
Si    5.37984e+00   5.50322e+00   5.33940e+00 -1.11209e-01  -4.60973e-01   8.55487e-01
Si    8.25365e+00   8.06693e+00   5.39904e+00 -1.20631e+00   4.97556e-01   3.18429e-01
Si    5.38831e+00   8.14601e+00   8.07611e+00  1.84759e-01   1.81866e-01  -5.99938e-01
Si    8.05379e+00   5.39455e+00   8.25126e+00 -7.80964e-02   5.39847e-01  -7.99953e-01
Si    6.80434e+00   6.73845e+00   6.77534e+00 -2.53626e-01   5.83601e-01  -2.20729e-01
Si    9.48048e+00   9.48568e+00   6.82098e+00 -5.11606e-01   2.26373e-01   5.93141e-01
Si    6.73664e+00   9.37857e+00   9.56154e+00 -7.36917e-03   2.14128e+00  -1.22041e+00
Si    9.52464e+00   6.70052e+00   9.43333e+00  4.85255e-01   5.21060e-01   1.07658e+00
