64
Lattice="10.862 0 0 0 10.862 0 0 0 10.862 " PBC="1 1 1" Properties=species:S:1:pos:R:3:force:R:3 Energy="-267.40993"
Si    5.08445e-02   4.58085e-02   6.41664e-02  3.27360e-01   4.82423e-01   1.20533e-01
Si    2.65802e+00   2.85718e+00   4.84868e-02 -3.79226e-01  -1.75365e+00  -3.64405e-02
Si    1.08986e+01   2.78370e+00   2.83916e+00 -6.85634e-01  -1.44819e-01  -1.18574e+00
Si    2.66738e+00  -2.77590e-02   2.74706e+00 -8.72490e-03  -5.95523e-01  -5.19359e-01
Si    1.32049e+00   1.42653e+00   1.51729e+00  7.29458e-01  -4.77822e-02  -1.42684e+00
Si    4.12227e+00   3.98083e+00   1.36057e+00 -4.11998e-01   1.40026e+00   1.00889e-02
Si    1.38474e+00   4.01086e+00   4.12169e+00 -1.03173e+00   1.11677e+00   6.53839e-01
Si    4.01687e+00   1.31260e+00   4.02999e+00  5.90878e-01  -2.98121e-01   1.09617e-01
Si    5.44818e+00   1.09279e+01   2.02421e-01  4.56429e-01   4.45729e-02  -1.91148e+00
Si    8.31529e+00   2.63792e+00  -3.24956e-02  2.35362e-02   1.86246e-01   1.57787e+00
Si    5.35812e+00   2.67017e+00   2.72504e+00  1.25273e+00   1.68418e-02   6.89560e-01
Si    8.19187e+00   1.09366e+01   2.77099e+00  5.62297e-01   7.33601e-03  -6.34901e-01
Si    6.88595e+00   1.43408e+00   1.46027e+00 -2.45413e-01  -3.95390e-02  -6.86993e-01
Si    9.66036e+00   4.08064e+00   1.29356e+00 -1.08805e+00   5.25525e-02   5.36918e-01
Si    6.73144e+00   4.06078e+00   4.10413e+00 -5.88345e-01   1.39765e+00  -3.17188e-01
Si    9.50457e+00   1.48862e+00   4.10103e+00 -6.15674e-01  -6.09617e-01   1.15642e+00
Si    1.07540e+01   5.61633e+00   1.07875e+01  1.42701e+00  -1.07666e+00   6.17716e-01
Si    2.75517e+00   7.99982e+00   1.07996e+01  3.83292e-01   6.12722e-01  -2.79456e-01
Si    4.40508e-03   8.11898e+00   2.59467e+00  4.25851e-01   9.36855e-01   7.67885e-01
Si    2.58567e+00   5.26963e+00   2.70529e+00  1.54297e+00   9.51758e-01  -7.55196e-01
Si    1.35364e+00   6.74616e+00   1.37973e+00  1.01455e-01  -2.06717e-01  -1.17992e+00
Si    4.01747e+00   9.51125e+00   1.28402e+00 -3.87716e-01  -7.25002e-01   1.03188e+00
Si    1.34381e+00   9.38412e+00   4.04714e+00  2.08653e-01   3.45978e-03   2.40416e-01
Si    3.86997e+00   6.77313e+00   3.99668e+00  9.18036e-01  -2.05896e-01  -3.34797e-01
Si    5.64147e+00   5.12479e+00   1.07938e+01 -9.23130e-01   2.46291e+00   8.13199e-01
Si    8.25108e+00   8.16383e+00   1.41853e-01 -8.44181e-01  -1.35933e-01  -9.53371e-01
Si    5.36298e+00   8.07614e+00   2.62207e+00 -3.79459e-01  -2.83488e-01  -3.44153e-01
Si    8.25958e+00   5.41151e+00   2.70805e+00 -3.18810e-01  -6.37942e-01   5.52243e-01
Si    6.86495e+00   6.71033e+00   1.36446e+00 -5.76096e-01  -4.15664e-01  -4.68823e-01
Si    9.55323e+00   9.61057e+00   1.36979e+00 -1.97122e-01  -2.47259e-01   6.54469e-01
Si    6.78102e+00   9.46759e+00   3.82623e+00 -3.45139e-01  -4.23071e-01   2.10540e+00
Si    9.64532e+00   6.83012e+00   4.02723e+00 -1.64340e+00  -7.32807e-01   7.20970e-01
Si    1.08145e+01   1.07656e+01   5.32931e+00  3.50351e-01   1.62284e+00   6.03886e-01
Si    2.73832e+00   2.70535e+00   5.31936e+00 -4.78627e-01  -1.00657e+00   2.15725e+00
Si    5.86009e-02   2.85926e+00   8.13568e+00 -6.18400e-01  -7.18347e-02   3.89169e-01
Si    2.54958e+00   8.51022e-02   8.19319e+00  1.34782e+00  -6.66167e-02   5.93571e-01
Si    1.28102e+00   1.39633e+00   6.79144e+00  4.91060e-02  -1.39359e-02  -1.62830e+00
Si    4.01443e+00   4.00172e+00   6.79527e+00  9.18221e-01  -2.10886e-01  -6.49342e-01
Si    1.33855e+00   4.23437e+00   9.55439e+00  9.42455e-01   4.98978e-01  -1.02970e+00
Si    4.04399e+00   1.39719e+00   9.59967e+00 -4.50790e-01  -5.01242e-01  -3.51922e-02
Si    5.39137e+00  -1.05858e-01   5.29365e+00 -2.61116e-01  -1.34646e-01   9.08639e-01
Si    8.06613e+00   2.83022e+00   5.53788e+00  1.26715e+00  -5.73609e-01   1.46460e-01
Si    5.40290e+00   2.56532e+00   8.08287e+00  7.37343e-01   9.70296e-01   8.74168e-01
Si    8.21154e+00  -8.17871e-02   8.21325e+00 -6.55830e-01   9.78149e-01   6.73125e-03
Si    6.76978e+00   1.22265e+00   6.74682e+00  3.12026e-01  -1.53068e-01   8.96150e-02
Si    9.53990e+00   4.30792e+00   6.85928e+00 -1.36324e+00  -2.37612e+00  -1.20316e-01
Si    7.00176e+00   3.86985e+00   9.48248e+00 -1.42045e+00   9.66866e-02  -1.97458e+00
Si    9.64744e+00   1.37221e+00   9.50636e+00 -1.30540e-01  -5.25321e-01  -1.04244e+00
Si    1.08693e+01   5.41224e+00   5.46439e+00  6.58586e-01   4.15330e-01  -1.60301e+00
Si    2.66478e+00   8.01104e+00   5.51935e+00 -6.92531e-01   1.23321e+00  -7.77679e-01
Si    1.08823e+01   8.22928e+00   8.06855e+00 -5.72039e-01  -2.26968e-01   1.09426e-01
Si    2.91741e+00   5.50366e+00   8.10529e+00 -2.24126e+00  -8.52117e-01   8.44702e-01
Si    1.31239e+00   6.67213e+00   6.80967e+00  7.07665e-01   1.06356e+00   9.09473e-01
Si    3.87863e+00   9.54095e+00   6.84044e+00  1.48742e+00   3.39824e-02  -4.62056e-01
Si    1.33540e+00   9.52832e+00   9.57434e+00  2.27970e-01  -8.37492e-01  -3.37384e-01
Si    4.34768e+00   6.73826e+00   9.41312e+00 -6.70254e-01  -3.78085e-01   1.80579e+00
Si    5.20516e+00   5.52209e+00   5.42994e+00  1.71348e+00  -9.92232e-01  -2.62721e-02
Si    8.05013e+00   8.08629e+00   5.35346e+00  4.34481e-01   5.26360e-01  -6.72832e-01
Si    5.46092e+00   8.30512e+00   8.18028e+00 -4.03571e-01   2.03436e-01  -3.88173e-01
Si    8.04940e+00   5.52358e+00   8.13025e+00  4.40504e-01   1.22819e-01   7.07483e-01
Si    6.65701e+00   6.87595e+00   6.81969e+00 -1.09826e-01  -5.45343e-01  -9.43572e-01
Si    9.40072e+00   9.52139e+00   6.66598e+00  5.69235e-01  -1.02125e+00   5.86403e-01
Si    6.82537e+00   9.47495e+00   9.66944e+00  2.37087e-02   1.16714e+00   7.58721e-02
Si    9.46194e+00   6.90758e+00   9.44198e+00 -3.99154e-01   4.61670e-01  -4.42153e-01
