64
Lattice="10.862 0 0 0 10.862 0 0 0 10.862 " PBC="1 1 1" Properties=species:S:1:pos:R:3:force:R:3 Energy="-269.01102"
Si    7.15383e-02   3.17881e-02  -7.33096e-03 -6.45297e-01   3.02403e-01   4.20338e-01
Si    2.68637e+00   2.68460e+00   1.36587e-01  5.51739e-01   3.37090e-01  -1.12480e+00
Si    1.08895e+01   2.76382e+00   2.82945e+00 -9.10525e-01   8.76990e-02  -1.41808e+00
Si    2.67423e+00  -8.34914e-02   2.75326e+00 -5.63970e-01   1.11220e+00   2.88472e-01
Si    1.33833e+00   1.39089e+00   1.41062e+00 -8.91001e-02  -9.24671e-01   9.10986e-01
Si    3.91856e+00   4.05608e+00   1.56399e+00  1.87280e+00  -2.25001e-01  -1.68877e+00
Si    1.43235e+00   4.10930e+00   4.06927e+00  2.21328e-01   2.17025e-01   2.76692e-01
Si    4.18399e+00   1.23410e+00   3.98508e+00 -1.00625e+00  -1.26099e-01   1.76651e+00
Si    5.45773e+00   1.08539e+01  -7.15225e-02 -3.66576e-01   1.41613e+00   1.71101e+00
Si    8.21223e+00   2.74814e+00  -3.01767e-02  4.63112e-02  -3.31050e-01   6.01647e-01
Si    5.46373e+00   2.66242e+00   2.71133e+00 -3.85287e-01   1.20720e+00   6.23584e-01
Si    8.10979e+00   1.08361e+01   2.71388e+00 -4.57231e-01   1.10809e+00   3.85598e-01
Si    6.84810e+00   1.44920e+00   1.35649e+00 -3.67546e-01  -1.53083e+00  -1.01749e+00
Si    9.49781e+00   4.09970e+00   1.32804e+00  1.51808e+00  -2.24425e-01   3.16531e-01
Si    6.70817e+00   4.11281e+00   4.13960e+00  1.69860e-01   6.70752e-01  -1.06279e+00
Si    9.35866e+00   1.46905e+00   4.06431e+00  2.50036e-01  -3.52345e-01   1.26944e-01
Si    1.09161e+01   5.49804e+00   1.08585e+01 -3.01700e-02  -1.14503e+00  -3.05834e-02
Si    2.83080e+00   8.12855e+00   1.08059e+01 -3.98380e-01   4.05523e-01   6.54129e-01
Si   -3.33830e-02   8.29315e+00   2.65780e+00  1.69046e-01  -6.13528e-01   5.49442e-01
Si    2.67889e+00   5.57833e+00   2.71098e+00 -4.69805e-01  -3.60496e-01   6.54521e-01
Si    1.33727e+00   6.89620e+00   1.34203e+00  4.65615e-01   3.51139e-01  -3.21426e-01
Si    4.10077e+00   9.57026e+00   1.42675e+00  7.64190e-03  -8.71052e-01  -2.22447e+00
Si    1.14296e+00   9.62573e+00   4.16442e+00  1.32700e+00  -9.04427e-01  -3.73121e-01
Si    4.01980e+00   6.92084e+00   4.03224e+00  5.84234e-01  -3.38433e-01  -3.90570e-01
Si    5.43306e+00   5.25567e+00   1.09014e+01 -5.97410e-01  -4.61013e-01  -3.13435e-01
Si    8.10876e+00   7.99649e+00  -1.66276e-02  1.67806e+00   1.28441e+00   7.76607e-01
Si    5.47663e+00   8.05222e+00   2.47184e+00 -1.19165e+00   7.41966e-01   2.47307e+00
Si    8.17195e+00   5.40526e+00   2.65560e+00 -8.68148e-01   3.44997e-01   1.18297e+00
Si    6.73156e+00   6.66269e+00   1.27085e+00  1.32757e+00  -6.17404e-01  -6.06503e-02
Si    9.49664e+00   9.63982e+00   1.39014e+00 -5.25554e-01  -1.62873e+00  -2.05606e+00
Si    6.78087e+00   9.33398e+00   3.94100e+00  1.37997e-01   3.96549e-01   1.10412e+00
Si    9.58294e+00   6.81741e+00   3.99094e+00 -1.07074e+00   2.14333e-01   1.56434e-01
Si    1.06731e+01   1.10012e+01   5.46358e+00  6.22139e-01   2.69654e-01   2.67528e-01
Si    2.71188e+00   2.62616e+00   5.41078e+00  5.17087e-01  -1.25920e-01  -1.74939e+00
Si   -1.16669e-01   2.86506e+00   8.18126e+00  2.38107e+00  -1.42847e+00   1.61385e-01
Si    2.64983e+00   2.40106e-02   8.25799e+00 -8.46918e-02   3.45136e-01  -2.13807e+00
Si    1.26945e+00   1.50164e+00   6.77955e+00 -3.04532e-01  -1.49603e+00   1.34734e+00
Si    4.06775e+00   3.94379e+00   6.65418e+00  7.16779e-01   1.35861e+00   1.07086e+00
Si    1.39972e+00   4.00747e+00   9.53734e+00 -7.30935e-02   1.11748e+00   2.80905e-01
Si    4.04944e+00   1.40453e+00   9.48640e+00  2.22311e-01  -1.97725e-01   8.92512e-01
Si    5.47950e+00  -1.73095e-01   5.47289e+00  1.42077e-01   6.73963e-01  -1.35816e+00
Si    8.06171e+00   2.80454e+00   5.47303e+00  4.52925e-01  -5.41800e-01   6.61234e-02
Si    5.43823e+00   2.67072e+00   8.08192e+00  5.83654e-01   7.95808e-02   1.54888e-01
Si    8.21697e+00   3.77676e-02   8.24490e+00  1.99197e-01  -1.70598e-01  -4.58863e-01
Si    6.84349e+00   1.27928e+00   6.76948e+00 -4.79041e-01   5.86483e-02   4.51916e-01
Si    9.54633e+00   4.06503e+00   6.78923e+00 -7.11720e-01   2.10250e+00  -1.87131e+00
Si    6.90252e+00   4.01143e+00   9.46677e+00 -1.99444e+00  -2.33740e-01   1.69225e-02
Si    9.59966e+00   1.45275e+00   9.53845e+00 -6.46711e-01  -1.03206e+00  -5.60350e-03
Si    1.09744e+01   5.53788e+00   5.34522e+00 -8.32548e-01  -1.18897e+00   1.37279e+00
Si    2.50560e+00   8.04323e+00   5.39825e+00  1.63467e+00   2.98836e+00  -2.40880e-01
Si    1.08379e+01   8.18530e+00   8.12015e+00  5.07526e-01  -8.90708e-01   4.69014e-01
Si    2.83715e+00   5.31319e+00   8.15449e+00 -6.25993e-01   5.25101e-01  -2.88060e-01
Si    1.40949e+00   6.79388e+00   6.84211e+00 -7.79845e-01  -1.33686e+00   1.10296e+00
Si    4.01194e+00   9.47400e+00   6.79181e+00 -6.18700e-01  -9.52841e-01   6.90900e-01
Si    1.33941e+00   9.47128e+00   9.52655e+00  3.41684e-01  -1.84699e-01   1.76072e-01
Si    4.22269e+00   6.71355e+00   9.50109e+00 -4.70613e-01  -8.91387e-02  -6.54749e-02
Si    5.34019e+00   5.57198e+00   5.44030e+00 -2.34389e-01  -1.53079e+00  -5.99396e-01
Si    8.12695e+00   8.06315e+00   5.47231e+00  6.26539e-01   2.24071e-01  -9.55606e-01
Si    5.55972e+00   8.14333e+00   8.17157e+00 -6.00479e-01   4.77041e-01  -2.18901e-02
Si    8.12992e+00   5.36219e+00   8.11587e+00  1.13369e+00   1.94375e-01   2.64163e-02
Si    6.79886e+00   6.68203e+00   6.80650e+00 -9.44809e-02   1.21055e+00   1.02344e-01
Si    9.50189e+00   9.50404e+00   6.79682e+00 -1.10650e+00   3.01736e-01   7.65755e-02
Si    6.89721e+00   9.54042e+00   9.63174e+00 -3.64647e-01  -8.73103e-01  -1.73897e+00
Si    9.53403e+00   6.70431e+00   9.44929e+00 -4.42625e-01   8.03700e-01  -1.33156e-01
