64
Lattice="10.862 0 0 0 10.862 0 0 0 10.862 " PBC="1 1 1" Properties=species:S:1:pos:R:3:force:R:3 Energy="-266.21529"
Si   -6.03713e-03   5.75093e-02   9.40094e-02  4.49221e-01  -3.30473e-01  -2.31565e-01
Si    2.70955e+00   2.79589e+00  -3.30166e-02 -1.19317e+00   3.39010e-01   6.56415e-01
Si    1.09575e+01   2.72554e+00   2.84984e+00 -1.15007e-01   1.37470e+00   5.40128e-01
Si    2.77209e+00  -1.16652e-01   2.62647e+00 -1.10121e-01   9.07078e-01   1.25504e+00
Si    1.36923e+00   1.37683e+00   1.50525e+00  7.49249e-01   1.84518e-01  -1.78763e+00
Si    4.10556e+00   4.17615e+00   1.30489e+00 -4.81108e-01  -1.29609e+00   4.49706e-02
Si    1.54800e+00   4.03925e+00   4.36216e+00 -1.59113e+00   2.82296e-03  -2.25345e+00
Si    3.98443e+00   1.29296e+00   4.16716e+00 -8.53236e-02  -4.44917e-01  -1.91329e+00
Si    5.53247e+00   1.09209e+01   3.35801e-02 -7.18543e-01   2.83935e-01   6.65978e-01
Si    8.24903e+00   2.58787e+00   1.20744e-01  4.23899e-01   2.51093e+00   3.10817e-01
Si    5.25264e+00   2.69422e+00   2.77248e+00  1.37722e+00   4.37299e-01  -3.92810e-01
Si    8.08042e+00   1.08466e+01   2.70408e+00  4.49862e-01  -4.06001e-01   8.73179e-01
Si    6.82572e+00   1.41544e+00   1.48096e+00 -1.45685e+00  -1.84530e-01  -4.48972e-01
Si    9.69068e+00   4.17422e+00   1.35493e+00 -1.17882e+00  -5.08911e-01   6.61501e-01
Si    6.80857e+00   4.04739e+00   4.01200e+00 -1.31412e+00   6.79903e-01   7.03511e-01
Si    9.42403e+00   1.45836e+00   4.10609e+00  7.91621e-02  -1.16976e+00   2.74508e-01
Si    1.09050e+01   5.55739e+00   1.06980e+01 -2.90429e-01   6.20403e-02   1.49169e-01
Si    2.83347e+00   8.09350e+00   1.08940e+01  2.06193e-01  -3.91520e-01   2.34631e-02
Si   -2.23593e-02   8.31149e+00   2.69416e+00  4.64341e-01  -8.02193e-01  -1.45502e-01
Si    2.63621e+00   5.38922e+00   2.66841e+00  1.74949e-01   1.03312e-01   9.53671e-01
Si    1.33482e+00   6.84166e+00   1.36697e+00 -1.27461e-01   2.61448e-01  -2.87019e-01
Si    4.24416e+00   9.42434e+00   1.33821e+00 -1.17219e+00   7.52004e-01  -4.93376e-01
Si    1.29722e+00   9.62320e+00   4.10131e+00  6.90345e-01  -9.04204e-01  -7.39789e-01
Si    3.92118e+00   6.71454e+00   4.13173e+00 -8.58905e-01   1.40157e+00  -1.34611e+00
Si    5.52783e+00   5.25089e+00   1.06598e+01  3.70892e-01   2.17687e-01   1.22331e+00
Si    8.19950e+00   8.10729e+00  -5.35947e-02 -8.75169e-01  -7.89850e-01   3.52548e-02
Si    5.30603e+00   7.99523e+00   2.71129e+00  7.54267e-01  -2.31968e+00  -1.33773e+00
Si    8.19629e+00   5.53883e+00   2.82594e+00  8.34085e-01  -1.13499e+00  -1.34989e+00
Si    6.79860e+00   6.58483e+00   1.25928e+00 -1.74473e-01   1.86923e+00   4.32081e-01
Si    9.41414e+00   9.49921e+00   1.30856e+00  6.52749e-01   8.60675e-01   3.98092e-01
Si    6.62823e+00   9.32399e+00   3.86353e+00  2.01795e+00   1.37958e+00   1.36806e+00
Si    9.56655e+00   6.98161e+00   4.10298e+00 -1.73521e-01  -1.38082e+00   3.21266e-01
Si    1.07769e+01   1.08284e+01   5.45521e+00 -6.90506e-01   1.19402e+00   1.81568e-01
Si    2.78440e+00   2.56711e+00   5.61991e+00 -1.19189e-01   4.68874e-01  -6.04357e-02
Si   -4.04621e-02   2.76238e+00   8.09986e+00  3.79183e-01  -6.65809e-01  -8.19542e-02
Si    2.69175e+00   5.63854e-02   8.11149e+00  1.18566e+00  -1.36131e+00   1.92641e+00
Si    1.35662e+00   1.24395e+00   6.83195e+00 -1.98508e+00   1.43159e+00  -3.57699e-01
Si    4.16701e+00   4.00227e+00   6.79776e+00 -1.24212e-01  -1.76750e-01   4.40212e-01
Si    1.36822e+00   4.19541e+00   9.30995e+00  4.39206e-01  -8.32222e-01   1.24176e+00
Si    4.01988e+00   1.37366e+00   9.58903e+00  1.40190e+00  -1.14724e-01  -1.32162e+00
Si    5.34955e+00  -1.78242e-01   5.21380e+00  4.40265e-01   7.49397e-01   1.36940e+00
Si    8.04796e+00   2.77560e+00   5.52293e+00 -3.66665e-01  -1.26814e+00  -9.42914e-01
Si    5.56234e+00   2.60726e+00   8.11014e+00 -1.76631e+00   6.03133e-01   1.37907e+00
Si    8.10259e+00  -2.49766e-02   8.30312e+00  3.61928e-01   1.51467e+00  -2.59303e+00
Si    6.60520e+00   1.22884e+00   6.68410e+00  2.44977e+00  -9.64491e-01   1.70929e-01
Si    9.45301e+00   4.09357e+00   6.74375e+00 -1.99899e-01   6.97803e-01   1.09975e+00
Si    7.00831e+00   3.91231e+00   9.45945e+00 -6.88886e-01  -8.26504e-02  -4.08212e-02
Si    9.52522e+00   1.40418e+00   9.55806e+00  5.86928e-01  -9.56786e-01  -6.64841e-01
Si    1.08449e+01   5.42149e+00   5.46023e+00  3.45057e-01   8.54097e-01  -4.53801e-01
Si    2.64786e+00   8.24307e+00   5.44594e+00  4.71416e-01  -3.23576e-01  -7.46437e-01
Si    1.09340e+01   8.28264e+00   8.19840e+00  7.17907e-01  -2.94146e-01  -1.96319e+00
Si    2.82321e+00   5.47314e+00   8.02240e+00  2.45112e-01  -2.33382e-01   4.91163e-01
Si    1.44060e+00   6.78264e+00   6.71269e+00 -1.58053e+00   9.83453e-01   1.37904e+00
Si    4.05710e+00   9.56080e+00   6.75115e+00  8.26564e-02  -9.02381e-01   1.04867e+00
Si    1.48582e+00   9.53373e+00   9.66726e+00 -8.74704e-01   6.74789e-01  -1.00079e+00
Si    4.19622e+00   6.70460e+00   9.49883e+00 -1.13724e+00   5.77584e-01  -2.97234e-01
Si    5.25775e+00   5.41649e+00   5.33347e+00  2.64162e+00  -6.61841e-01   1.05933e+00
Si    8.05627e+00   8.18004e+00   5.39905e+00 -8.60045e-01  -2.48734e-01  -1.89048e-01
Si    5.43243e+00   8.21449e+00   8.26682e+00 -2.75775e-01   7.75361e-01  -1.03740e+00
Si    8.08075e+00   5.51032e+00   8.12047e+00  7.46464e-02  -6.43979e-01  -1.48256e+00
Si    6.61500e+00   6.87393e+00   6.77395e+00  5.89855e-01  -1.05032e+00  -5.09778e-01
Si    9.35825e+00   9.48414e+00   6.78269e+00  1.06936e+00   6.44425e-01   1.04066e+00
Si    6.84305e+00   9.57306e+00   9.59801e+00 -7.94693e-01  -1.53041e+00   2.70593e-01
Si    9.50455e+00   6.88665e+00   9.25451e+00  2.03220e-01  -4.21338e-01   2.48174e+00
