64
Lattice="10.862 0 0 0 10.862 0 0 0 10.862 " PBC="1 1 1" Properties=species:S:1:pos:R:3:force:R:3 Energy="-266.87763"
Si    2.26307e-01  -1.58095e-02   7.62580e-02 -4.52922e-01   1.11417e+00  -1.18076e+00
Si    2.78328e+00   2.78734e+00   1.61373e-02  1.72143e-01  -2.80877e-01   6.11821e-01
Si    1.06933e+01   2.69959e+00   2.69920e+00  6.89481e-01  -5.67694e-02   1.99655e+00
Si    2.62238e+00   5.44421e-02   2.80214e+00  7.29713e-01   2.10649e-02  -3.64755e-01
Si    1.39550e+00   1.49466e+00   1.46339e+00 -1.08168e-01  -3.26349e-01  -8.41125e-01
Si    4.30395e+00   4.04103e+00   1.36753e+00 -7.55792e-01  -8.75434e-02  -4.35762e-01
Si    1.20087e+00   4.08595e+00   4.19247e+00 -2.36706e-01   3.47773e-01  -1.59774e+00
Si    3.87056e+00   1.43598e+00   4.17540e+00  3.20118e+00  -7.40287e-01  -1.66323e+00
Si    5.41200e+00   1.08411e+01   1.72396e-01  4.23973e-01   1.07803e+00  -3.06204e+00
Si    8.09805e+00   2.61246e+00   7.86468e-04  8.39068e-01   1.30411e+00   1.68700e-01
Si    5.58812e+00   2.57788e+00   2.69846e+00 -1.71219e+00  -3.18087e-01   8.71508e-01
Si    8.22307e+00   1.05891e+01   2.76748e+00  7.01815e-01   1.70740e+00  -3.96464e-01
Si    6.91686e+00   1.19260e+00   1.36385e+00  1.58013e-01  -1.49982e-01   1.20756e+00
Si    9.36283e+00   4.09678e+00   1.44991e+00  9.98078e-02  -1.14123e-01  -1.56273e+00
Si    6.77886e+00   3.94983e+00   4.11798e+00  6.23617e-01   1.65145e+00  -1.72435e+00
Si    9.48531e+00   1.21765e+00   4.20200e+00 -4.60438e-01   7.93377e-01  -1.56068e+00
Si    1.08601e+01   5.34671e+00   1.08919e+01  2.48099e-01   2.38532e-01  -3.10494e-01
Si    2.79451e+00   8.23208e+00   1.07584e+01 -4.51810e-01   2.51084e-01   5.32621e-01
Si    2.82983e-01   7.91276e+00   2.68603e+00 -1.48345e+00   2.01010e+00   6.65824e-01
Si    2.70155e+00   5.28088e+00   2.59899e+00  9.39003e-02  -6.21853e-01   1.19670e+00
Si    1.56215e+00   6.71133e+00   1.22173e+00 -7.73591e-01  -3.65267e-01  -5.64577e-01
Si    4.01740e+00   9.64913e+00   1.35833e+00 -1.62282e+00  -1.21171e+00   6.84087e-01
Si    1.46226e+00   9.45975e+00   4.14869e+00 -1.22225e+00  -3.38338e-01  -4.73162e-01
Si    4.02447e+00   6.63648e+00   3.94973e+00  7.95198e-01   1.30473e+00  -4.31805e-02
Si    5.57012e+00   5.47825e+00   1.08391e+01 -1.55582e+00   6.35971e-01  -2.34368e-01
Si    8.08082e+00   8.27155e+00  -1.62320e-02  2.17764e+00  -1.22411e-01   1.91088e-01
Si    5.31003e+00   8.19789e+00   2.55465e+00 -6.65178e-01   6.23536e-01   2.85960e+00
Si    8.04750e+00   5.57578e+00   2.68880e+00 -9.86602e-01  -6.31122e-01   4.41473e-01
Si    6.69998e+00   7.04476e+00   1.28583e+00  1.34039e+00  -2.40325e+00   1.60721e-01
Si    9.79443e+00   9.43242e+00   1.31132e+00 -1.41790e+00  -1.24591e+00   1.07952e+00
Si    6.59061e+00   9.63182e+00   4.09898e+00 -8.75851e-01  -9.15479e-01  -1.25571e+00
Si    9.42225e+00   6.88279e+00   4.03778e+00  3.76239e-01  -5.52017e-02  -2.08073e-01
Si    1.08813e+01   1.08071e+01   5.50240e+00  5.07729e-01  -2.92529e-01  -3.11598e-01
Si    2.66087e+00   2.75507e+00   5.42813e+00 -2.06133e+00   2.01005e-01   1.22590e+00
Si    7.06006e-02   2.69499e+00   8.07339e+00 -6.61369e-01   4.83386e-01   1.63500e+00
Si    2.81122e+00  -2.23845e-03   8.07494e+00 -1.82564e-01  -1.16075e-01   7.45887e-02
Si    1.35279e+00   1.31494e+00   6.83123e+00  8.99320e-01   1.27372e-01  -1.13274e+00
Si    3.98499e+00   4.07541e+00   6.71083e+00  1.71276e+00   2.59522e-01   1.25528e+00
Si    1.46836e+00   4.06137e+00   9.45477e+00 -1.49020e+00  -3.16112e-02   4.95355e-01
Si    4.02708e+00   1.35153e+00   9.54154e+00  1.32276e+00  -2.63612e-01   3.55134e-01
Si    5.36685e+00   1.56991e-01   5.55630e+00 -1.03695e+00  -9.75100e-01  -2.40426e+00
Si    8.09191e+00   2.70317e+00   5.44222e+00  1.29985e+00  -1.07241e+00   6.67662e-01
Si    5.44106e+00   2.70917e+00   8.18748e+00 -5.25109e-01  -4.72192e-01  -1.51991e+00
Si    8.09208e+00   1.89483e-02   8.24318e+00  1.33666e+00   1.89467e-01  -3.75442e-01
Si    6.83884e+00   1.24318e+00   6.74551e+00 -1.90654e-01   2.67200e+00   2.18097e+00
Si    9.46913e+00   4.03318e+00   6.82223e+00 -8.37623e-01  -4.23201e-02   4.65939e-01
Si    6.79008e+00   4.05855e+00   9.49510e+00  9.25251e-01   1.53240e-02   4.29370e-02
Si    9.60901e+00   1.36746e+00   9.58372e+00  1.30147e-01  -6.89994e-01  -5.47374e-01
Si    1.06171e+01   5.49619e+00   5.52366e+00  1.62592e+00   2.77310e-02  -9.70956e-01
Si    2.86815e+00   8.14539e+00   5.40326e+00 -1.11952e+00  -1.58354e+00   5.21982e-01
Si    1.06880e+01   8.16626e+00   8.13077e+00  1.12183e+00   5.24767e-01  -4.29044e-01
Si    2.71936e+00   5.46456e+00   8.15120e+00  2.42723e-01   2.88618e-01  -6.87739e-01
Si    1.28593e+00   6.77474e+00   6.80705e+00  3.22074e-01   1.02028e+00  -4.04734e-01
Si    4.19117e+00   9.48779e+00   6.73812e+00 -5.16089e-01   1.37829e-01   1.07390e+00
Si    1.41856e+00   9.53886e+00   9.36668e+00 -6.24737e-01  -6.11280e-01   4.40480e-01
Si    4.08343e+00   6.87146e+00   9.45794e+00  1.15724e+00  -1.16826e+00   1.96911e-01
Si    5.45328e+00   5.36541e+00   5.33354e+00 -8.12182e-01   3.23930e-01   9.25054e-01
Si    7.96141e+00   8.27392e+00   5.27405e+00  9.31991e-01  -8.07016e-01   1.22848e+00
Si    5.50722e+00   8.18957e+00   8.16283e+00 -4.36206e-01  -6.60253e-01  -9.03404e-01
Si    8.16915e+00   5.48387e+00   8.18621e+00 -5.22943e-01  -6.50397e-01  -5.14974e-01
Si    6.78486e+00   6.79144e+00   6.72234e+00  9.82389e-03   6.22319e-02   1.41340e-01
Si    9.33489e+00   9.57849e+00   6.69194e+00  2.41089e-01  -9.03746e-01   1.20794e+00
Si    6.74570e+00   9.54032e+00   9.51966e+00 -4.66812e-01   7.65588e-01   7.12951e-01
Si    9.48024e+00   6.79706e+00   9.58694e+00 -1.91684e-01   1.44513e-01   1.65802e-01
