64
Lattice="10.862 0 0 0 10.862 0 0 0 10.862 " PBC="1 1 1" Properties=species:S:1:pos:R:3:force:R:3 Energy="-262.84199"
Si    1.09142e+01   2.29985e-03   1.09384e+01 -8.93013e-01  -4.32279e-01  -1.55978e+00
Si    2.71467e+00   2.67490e+00  -7.18391e-02 -4.19857e-01   3.55032e-01   7.04728e-01
Si    6.21593e-02   2.76129e+00   2.64080e+00  1.21156e-01   5.02203e-01   1.12432e+00
Si    2.89025e+00   1.07943e+01   2.68767e+00 -3.46973e+00   8.17602e-01  -2.57303e-01
Si    1.36537e+00   1.35772e+00   1.30225e+00  1.58255e+00  -2.46881e-01   1.45748e+00
Si    4.15403e+00   4.01192e+00   1.16479e+00 -4.49688e-01  -1.11749e+00   2.39899e+00
Si    1.47700e+00   4.13789e+00   4.10241e+00 -1.98422e+00  -6.50314e-01  -8.05486e-01
Si    4.13087e+00   1.33537e+00   3.90048e+00  7.29417e-01   1.05927e+00   1.27642e+00
Si    5.30232e+00   5.53174e-03   1.09060e+01  1.20069e+00   1.17684e+00  -2.19959e+00
Si    8.21809e+00   2.62600e+00   1.08311e+01 -2.49922e-02   1.03867e+00  -4.81167e-01
Si    5.57878e+00   2.61981e+00   2.59498e+00 -9.18607e-01   1.80925e+00   2.52952e-01
Si    8.19732e+00   2.99615e-02   2.72819e+00 -1.03959e+00  -3.10337e-01  -8.79718e-01
Si    6.79581e+00   1.33233e+00   1.17138e+00  1.00197e+00  -1.23398e+00   1.79986e+00
Si    9.41928e+00   4.04911e+00   1.39186e+00  6.88233e-01   8.84612e-01  -4.42247e-01
Si    6.83913e+00   4.08369e+00   4.09504e+00 -1.47796e+00  -1.75679e+00   5.94841e-01
Si    9.47345e+00   1.52987e+00   4.05429e+00  1.20270e+00  -1.52639e+00   6.30500e-01
Si    1.08588e+01   5.50035e+00   1.17577e-02 -1.17024e+00  -2.30966e-01   2.16922e+00
Si    2.48886e+00   8.11017e+00   1.28307e-01  1.38142e+00   3.38665e-01  -1.50405e+00
Si   -2.54373e-02   8.03819e+00   2.89518e+00 -1.44897e-03   1.05172e+00  -1.26619e+00
Si    2.84278e+00   5.30337e+00   2.71970e+00  1.17393e+00   6.76504e-01   9.80818e-02
Si    1.39781e+00   6.64262e+00   1.57995e+00 -1.42995e+00   9.44708e-01  -8.72541e-01
Si    4.00654e+00   9.57891e+00   1.18493e+00 -7.95687e-01  -2.73016e+00   1.58247e+00
Si    1.23184e+00   9.67201e+00   4.11324e+00  1.10131e+00  -7.08581e-01   3.03884e-01
Si    4.07444e+00   6.84422e+00   4.11900e+00 -9.50243e-01   8.57634e-01  -9.73863e-01
Si    5.42155e+00   5.35816e+00  -6.43940e-02  4.20211e-01   2.50865e+00   6.77281e-01
Si    8.04056e+00   8.01370e+00   1.09350e+01  3.82820e-01   2.14420e+00  -7.06176e-01
Si    5.31844e+00   8.16609e+00   2.54380e+00 -1.33935e+00   2.63368e-01   1.02072e+00
Si    7.99301e+00   5.37088e+00   2.80371e+00  1.37696e+00   8.84296e-01  -2.41326e+00
Si    6.69351e+00   6.80065e+00   1.44184e+00 -9.53381e-02  -2.20034e+00  -1.07837e+00
Si    9.54487e+00   9.44927e+00   1.35920e+00 -3.90066e-01  -6.92516e-01   7.46260e-01
Si    6.60374e+00   9.46816e+00   3.91138e+00  2.30552e+00   7.97702e-01   1.71581e+00
Si    9.30446e+00   6.74390e+00   4.04285e+00  8.99569e-01   2.62489e-01   1.74614e+00
Si    1.08127e+01   1.09863e+01   5.64047e+00 -1.92160e-01   3.75208e-01  -2.18102e+00
Si    2.77578e+00   2.72077e+00   5.29061e+00  6.30982e-01  -1.30961e+00   1.01887e+00
Si    4.03761e-02   2.77531e+00   8.20415e+00  2.84626e-01   1.75856e-01  -8.09955e-01
Si    2.77434e+00   7.07474e-02   8.06065e+00  7.07270e-01  -1.50328e+00   1.11105e+00
Si    1.48968e+00   1.37939e+00   6.84587e+00 -1.28102e+00   2.12400e+00  -9.74757e-01
Si    4.28851e+00   3.93581e+00   6.61591e+00 -6.13542e-01   1.42328e+00   5.18680e-01
Si    1.31324e+00   4.15076e+00   9.68085e+00  1.18237e+00  -1.13028e+00  -2.61312e+00
Si    4.05495e+00   1.36963e+00   9.49109e+00  1.73187e-01  -3.21841e-01  -1.58968e-01
Si    5.50183e+00   1.10013e+01   5.38411e+00 -8.08332e-01  -1.27414e+00  -2.96693e-01
Si    8.21095e+00   2.78658e+00   5.50441e+00 -1.50348e+00  -4.99029e-01  -8.25513e-01
Si    5.45263e+00   2.76288e+00   8.29537e+00  9.25704e-01  -2.90303e-01  -1.14143e+00
Si    8.16022e+00   2.09135e-03   8.21413e+00 -9.43137e-01  -1.00658e+00  -4.43756e-01
Si    6.81118e+00   1.41424e+00   6.84495e+00  4.69507e-01   2.41039e-01   4.83808e-01
Si    9.53952e+00   4.11011e+00   6.69040e+00  1.44822e+00  -8.33899e-01   1.49729e+00
Si    6.87359e+00   4.13297e+00   9.59752e+00  9.30584e-01  -1.05620e+00  -1.62464e+00
Si    9.57232e+00   1.31891e+00   9.45444e+00  3.98252e-01   1.19281e-01   1.02251e+00
Si    1.08131e+01   5.45398e+00   5.39387e+00  8.36297e-01   5.75771e-01  -7.58499e-01
Si    2.67500e+00   8.32213e+00   5.52782e+00 -1.08702e+00  -1.96274e+00  -2.18572e+00
Si    1.08703e+01   8.03817e+00   8.24386e+00  2.17380e-01   1.05255e+00  -1.14346e+00
Si    2.83546e+00   5.22192e+00   8.09357e+00 -8.09933e-01   1.07440e+00   1.49323e-01
Si    1.40483e+00   6.72380e+00   6.78558e+00  3.81272e-03   1.05502e-01   5.97297e-01
Si    4.09023e+00   9.54107e+00   6.68177e+00  1.13387e+00   1.68557e+00   1.08760e+00
Si    1.36549e+00   9.59910e+00   9.44366e+00 -1.90718e-01  -9.77953e-01   6.05238e-01
Si    3.96189e+00   6.76961e+00   9.56814e+00  1.05904e-01   8.15436e-02  -7.22201e-01
Si    5.54694e+00   5.58574e+00   5.32849e+00 -3.04780e-01  -1.46993e+00   1.47389e+00
Si    8.03678e+00   8.12407e+00   5.50736e+00 -7.20728e-01   4.33106e-01  -7.34654e-01
Si    5.32549e+00   8.14031e+00   8.08284e+00 -9.03966e-01   6.13948e-01   2.19698e+00
Si    8.25431e+00   5.36642e+00   8.03266e+00 -1.39932e+00   6.86293e-01   2.29001e+00
Si    6.71063e+00   6.76540e+00   7.00363e+00  1.26596e+00  -1.60315e-01  -2.57733e+00
Si    9.51823e+00   9.46662e+00   6.81194e+00 -5.21554e-01  -4.27540e-01   1.06878e+00
Si    6.60763e+00   9.50976e+00   9.57220e+00  1.59124e+00  -7.28581e-01  -5.92720e-01
Si    9.43030e+00   6.76055e+00   9.53502e+00  2.56058e-01  -3.51545e-01  -1.97113e-01
