64
Lattice="10.862 0 0 0 10.862 0 0 0 10.862 " PBC="1 1 1" Properties=species:S:1:pos:R:3:force:R:3 Energy="-262.75001"
Si    1.08998e+01   1.08617e-01   1.08863e+01  3.29759e-01   2.98984e-01  -1.69193e+00
Si    2.49502e+00   2.76807e+00   1.36062e-01  2.67566e+00  -5.72292e-01  -8.39609e-02
Si   -1.45733e-01   2.82950e+00   2.83921e+00 -9.05536e-02  -1.56267e-02  -9.18097e-01
Si    2.58655e+00   1.08911e+01   2.79270e+00  5.82245e-01   4.87205e-01  -4.45548e-01
Si    1.17552e+00   1.44891e+00   1.54894e+00  6.08870e-01  -2.45294e-01  -4.90918e-01
Si    4.26521e+00   4.12409e+00   1.20763e+00 -3.10069e+00   7.15639e-01  -4.69303e-01
Si    1.39368e+00   4.06993e+00   4.08248e+00  2.58483e-01  -2.18334e-01   1.65299e+00
Si    4.01394e+00   1.45764e+00   4.03691e+00  2.42591e-01  -1.03760e+00   7.66889e-01
Si    5.43230e+00   1.30775e-01   1.07932e+01 -8.76894e-01  -5.23648e-01   1.63454e+00
Si    8.25279e+00   2.62432e+00   1.07307e+01 -1.22734e+00   5.55608e-01  -4.29181e-01
Si    5.33251e+00   2.85076e+00   2.64822e+00  1.85429e+00  -1.88361e+00   7.23711e-01
Si    8.24756e+00  -1.70112e-01   2.70215e+00 -5.21279e-01   1.43057e+00  -1.48767e+00
Si    6.80311e+00   1.39272e+00   1.32134e+00  6.78280e-01  -5.43775e-02   1.05332e+00
Si    9.52288e+00   4.11300e+00   1.18075e+00 -1.61255e-01  -2.28199e-01   1.88684e+00
Si    6.58035e+00   4.15806e+00   4.13208e+00  9.79329e-01   2.02495e-01  -1.21594e+00
Si    9.41699e+00   1.31903e+00   4.05076e+00  2.66536e-01  -1.87929e-02  -1.45978e-01
Si    1.10166e+01   5.55419e+00   1.24417e-01 -1.70942e+00  -1.33289e+00  -3.00516e+00
Si    2.84607e+00   8.27472e+00   9.83604e-02 -4.47567e-01  -1.13840e+00   6.37262e-01
Si   -2.51227e-02   8.01005e+00   2.72345e+00  6.19697e-01  -7.58904e-02  -1.66716e+00
Si    2.82244e+00   5.34939e+00   2.71442e+00  7.56628e-01   6.59916e-01   2.29040e-01
Si    1.52150e+00   6.72001e+00   1.36339e+00  5.04170e-01   2.09322e+00   1.56322e+00
Si    4.09708e+00   9.63820e+00   1.48210e+00  1.11028e+00   1.51499e-01  -2.81579e-01
Si    1.32401e+00   9.35714e+00   3.97395e+00  1.54823e-01   7.23752e-01   1.20765e+00
Si    4.04181e+00   6.88870e+00   4.17882e+00 -1.83121e-03  -3.59111e-01  -1.98186e+00
Si    5.43635e+00   5.60541e+00  -1.81653e-01  1.04986e+00  -1.24031e+00   1.92103e+00
Si    8.09678e+00   8.31034e+00   1.08679e+01  4.26249e-01  -5.73434e-01  -2.81121e-01
Si    5.54768e+00   8.20244e+00   2.80296e+00 -1.52741e+00   3.67541e-01   1.41387e-01
Si    8.13221e+00   5.37854e+00   2.71676e+00 -1.17942e+00   4.31632e-01  -1.10708e+00
Si    6.72118e+00   6.90324e+00   1.28790e+00  1.41058e+00  -9.60087e-01   8.19025e-01
Si    9.71415e+00   9.48575e+00   1.16120e+00 -1.67369e+00  -8.88371e-01   2.82460e+00
Si    6.89527e+00   9.52226e+00   4.19086e+00 -1.95269e-03  -7.65614e-01  -1.77303e+00
Si    9.49512e+00   6.68578e+00   4.08094e+00 -8.65606e-01   7.67303e-01   2.47536e-02
Si    1.08856e+01   1.08118e+01   5.27632e+00  5.15521e-02  -3.22532e-01   1.79808e+00
Si    2.82047e+00   2.70966e+00   5.67271e+00 -1.05815e+00   5.60219e-01  -4.02587e+00
Si    1.28865e-01   2.58927e+00   8.14624e+00 -3.61415e-02   1.08343e+00  -6.85622e-01
Si    2.81912e+00  -1.79089e-02   8.15846e+00 -1.92609e+00  -1.00471e+00   1.29882e-01
Si    1.48820e+00   1.31394e+00   6.73261e+00 -1.54374e+00  -1.72877e+00   7.92767e-01
Si    4.05549e+00   4.09851e+00   6.83726e+00  1.21443e+00   6.08408e-01   1.67072e+00
Si    1.42110e+00   4.09131e+00   9.51748e+00 -2.18419e+00  -1.77470e-01   6.70052e-01
Si    3.90392e+00   1.32868e+00   9.56261e+00  9.35749e-01   2.30238e+00   6.24302e-01
Si    5.33700e+00   1.06524e+01   5.32383e+00 -1.55080e+00   2.11256e+00   8.81693e-01
Si    7.98553e+00   2.69046e+00   5.27432e+00  3.00205e-01   7.32128e-02   2.23905e+00
Si    5.40167e+00   2.72063e+00   8.23884e+00 -1.73306e+00  -9.69012e-01  -9.96574e-01
Si    8.01657e+00  -1.23088e-01   7.73542e+00  1.06879e+00   9.68553e-01   2.32061e+00
Si    6.51411e+00   1.32175e+00   6.67306e+00  1.21931e+00   4.42261e-01  -7.11201e-01
Si    9.60287e+00   3.95902e+00   6.75843e+00 -1.64853e+00  -1.03867e+00   3.88213e-02
Si    6.69559e+00   4.07487e+00   9.47451e+00  2.09855e+00  -2.11004e-01   6.82382e-01
Si    9.49361e+00   1.22247e+00   9.23606e+00 -4.24585e-01  -4.69364e-01   8.68586e-01
Si    1.07908e+01   5.41490e+00   5.47052e+00  1.92923e+00  -3.26394e-01  -2.02778e-01
Si    2.65302e+00   8.14086e+00   5.49001e+00 -3.44111e-01  -2.06199e-01   7.58584e-01
Si    1.08408e+01   8.16709e+00   8.16911e+00  1.84009e+00  -1.43342e+00   2.38376e+00
Si    2.74316e+00   5.37251e+00   8.25478e+00  9.40643e-01   1.74004e+00  -3.59615e-01
Si    1.35411e+00   6.69577e+00   6.89545e+00 -3.62982e-01   5.74320e-01  -5.13436e-01
Si    4.08329e+00   9.37996e+00   6.92193e+00  6.78875e-01   5.55084e-02  -1.25785e+00
Si    1.44139e+00   9.50001e+00   9.65664e+00 -8.17979e-01   9.38980e-01  -1.83354e+00
Si    4.10909e+00   6.93287e+00   9.55652e+00 -6.85296e-01   1.92116e-01  -2.10138e+00
Si    5.28417e+00   5.54229e+00   5.48818e+00 -1.89742e-01  -1.59066e+00  -3.88717e-01
Si    8.13427e+00   8.11449e+00   5.42843e+00  6.48134e-01  -1.76957e+00   4.56558e-01
Si    5.66480e+00   8.12544e+00   8.16081e+00 -1.71455e+00   9.04164e-01   1.17945e+00
Si    8.21355e+00   5.28896e+00   8.16277e+00 -5.51967e-01   1.49450e+00  -5.30445e-01
Si    6.70254e+00   6.70228e+00   6.71099e+00  3.04241e+00   2.47832e-01   1.49196e+00
Si    9.59743e+00   9.29652e+00   6.78187e+00 -8.79192e-01   2.56175e+00  -2.62861e+00
Si    6.85696e+00   9.73957e+00   9.53537e+00 -4.32897e-02  -1.51835e+00  -1.59172e+00
Si    9.45234e+00   6.85922e+00   9.61380e+00  6.03014e-01  -8.47598e-01  -7.70638e-01
