64
Lattice="10.862 0 0 0 10.862 0 0 0 10.862 " PBC="1 1 1" Properties=species:S:1:pos:R:3:force:R:3 Energy="-263.2305"
Si    1.08969e+01   4.96251e-02   1.06973e+01  1.01942e+00  -1.06279e+00   1.65421e+00
Si    2.61740e+00   2.62831e+00   1.04240e-01 -7.79065e-01   6.40572e-01  -2.23227e+00
Si    9.04776e-03   2.75844e+00   2.90865e+00  5.40615e-01  -1.72435e+00   2.04883e-01
Si    2.60329e+00   1.07691e+01   2.64015e+00  1.94106e+00   1.61795e-01   1.72089e+00
Si    1.33005e+00   1.27912e+00   1.49650e+00 -1.98915e+00   1.32076e+00  -1.46099e+00
Si    4.01385e+00   3.96968e+00   1.29109e+00  1.08978e+00   6.90339e-01   3.14514e-01
Si    1.43976e+00   4.26361e+00   3.96721e+00 -1.15032e+00   1.99687e-01   1.61728e+00
Si    3.93826e+00   1.43214e+00   4.09348e+00  6.19119e-01  -1.21964e+00  -1.58571e+00
Si    5.50259e+00   1.89300e-02   1.09946e+01  8.60417e-01   1.68809e+00  -1.27876e+00
Si    8.19199e+00   2.62189e+00   1.08363e+01  1.93714e+00  -2.84950e-01   1.08379e+00
Si    5.45087e+00   2.70270e+00   2.67290e+00 -1.50873e+00  -1.03637e+00  -4.48047e-02
Si    8.30434e+00   9.86611e-04   2.92786e+00  3.42719e-01  -2.07610e-01  -1.86708e+00
Si    7.01838e+00   1.39830e+00   1.49885e+00 -1.55623e+00  -1.37092e+00  -2.22750e-01
Si    9.52076e+00   3.90177e+00   1.52898e+00 -1.51079e+00   1.23013e+00  -1.47724e+00
Si    6.56589e+00   3.98637e+00   4.11767e+00  2.45217e+00   1.74835e+00   1.30531e+00
Si    9.42887e+00   1.43407e+00   4.36499e+00  9.89043e-01   9.29667e-01  -1.22311e+00
Si    1.05747e+01   5.37982e+00  -2.02738e-02  1.00947e+00   1.20753e+00   9.14528e-01
Si    2.81987e+00   8.12453e+00   6.83045e-02 -1.37034e+00   3.63802e-01  -2.43660e+00
Si    7.41969e-02   8.01239e+00   2.76547e+00 -1.26961e+00   7.04429e-01  -1.20132e+00
Si    2.77555e+00   5.50036e+00   2.48745e+00 -5.02293e-01  -8.03398e-01   7.44604e-01
Si    1.31500e+00   6.80207e+00   1.26644e+00 -4.97674e-01  -9.13503e-01  -7.21586e-01
Si    4.11255e+00   9.56895e+00   1.26747e+00 -1.03346e-01  -1.07966e+00   2.34585e+00
Si    1.22340e+00   9.49286e+00   4.01602e+00  1.17423e+00   2.65399e-01   1.42073e+00
Si    4.12043e+00   6.70267e+00   3.91290e+00 -7.90748e-02   1.75664e+00   5.69778e-01
Si    5.35725e+00   5.44145e+00   1.80315e-02  2.04625e-02  -1.59346e+00  -1.38789e+00
Si    8.08675e+00   8.19384e+00   1.08792e+01  1.39655e+00  -2.45013e-01  -1.96412e-01
Si    5.52395e+00   8.20580e+00   2.69231e+00 -6.48211e-01  -7.95315e-01  -1.27435e+00
Si    8.10155e+00   5.31878e+00   2.82669e+00 -6.29149e-01   5.09032e-02  -1.16502e+00
Si    6.80730e+00   6.70870e+00   1.22845e+00  1.99366e-01   5.53984e-01   2.60910e+00
Si    9.66527e+00   9.45124e+00   1.32861e+00 -1.02701e+00   6.65738e-01   6.18803e-01
Si    6.80084e+00   9.55930e+00   4.06819e+00  1.73579e-01  -5.73790e-01  -3.89210e-01
Si    9.47943e+00   6.76608e+00   4.05335e+00 -7.22400e-01   9.72210e-02   2.87278e-01
Si    1.08019e+01   1.08969e+01   5.51266e+00  1.69683e+00  -3.99455e-01   1.10313e+00
Si    2.62073e+00   2.78855e+00   5.42084e+00  2.18676e+00   1.91880e+00   1.08351e-01
Si    1.09167e-01   2.67895e+00   8.06286e+00 -7.00490e-01  -3.66278e-01   1.49623e+00
Si    2.87528e+00  -1.70265e-01   8.01950e+00  7.17702e-01   2.40583e+00   1.03020e+00
Si    1.63895e+00   1.41084e+00   6.87422e+00 -2.84674e+00  -1.73199e+00  -1.07816e+00
Si    4.10624e+00   4.15810e+00   6.93012e+00 -1.00958e-01  -1.36973e+00  -2.49816e+00
Si    1.13584e+00   4.18573e+00   9.50225e+00  2.41911e+00  -1.72174e+00   2.73605e-01
Si    4.08020e+00   1.33718e+00   9.51877e+00 -1.45530e-01  -8.81507e-01   4.85805e-01
Si    5.41966e+00   1.08679e+01   5.30166e+00 -1.86490e-01   9.98931e-01   1.78819e+00
Si    8.20418e+00   2.95665e+00   5.61859e+00 -1.52172e+00  -1.10629e+00  -1.85655e+00
Si    5.43602e+00   2.68169e+00   8.17506e+00  9.83663e-01   4.72209e-01   4.33560e-01
Si    8.11861e+00   5.15200e-02   8.06223e+00 -2.21190e-01  -1.48528e+00   5.90448e-01
Si    6.87345e+00   1.44545e+00   6.71081e+00 -1.73891e+00  -6.19658e-01   2.23235e-01
Si    9.60691e+00   4.10491e+00   6.91197e+00 -6.41864e-02   2.14196e+00  -2.40715e-01
Si    6.90032e+00   3.98089e+00   9.64030e+00 -2.37664e+00   1.60624e+00  -1.72079e+00
Si    9.52567e+00   1.29500e+00   9.39845e+00  4.30647e-02   1.34903e+00  -3.72951e-01
Si    1.08352e+01   5.61876e+00   5.50239e+00  2.89410e-01  -2.38533e+00  -1.12170e+00
Si    2.72583e+00   8.09860e+00   5.30744e+00  4.07725e-01   7.14483e-01  -3.88274e-01
Si    1.09300e+01   8.16458e+00   8.15928e+00 -1.10637e+00   3.61972e-01  -1.91677e-01
Si    2.64048e+00   5.40455e+00   8.04421e+00 -1.81947e+00   8.77538e-01   1.11010e+00
Si    1.33912e+00   6.90827e+00   6.71433e+00  1.04755e+00  -5.33481e-01   8.80918e-01
Si    4.17074e+00   9.38452e+00   6.74507e+00  6.73338e-01  -5.78985e-01  -1.19912e+00
Si    1.51067e+00   9.58173e+00   9.36917e+00 -8.92065e-01  -1.80445e+00   2.13245e+00
Si    3.95722e+00   6.68767e+00   9.40324e+00  9.51057e-01   6.05816e-01   1.48934e+00
Si    5.39610e+00   5.53681e+00   5.46235e+00 -6.69811e-01  -1.45819e+00  -1.68596e-01
Si    8.04015e+00   8.10204e+00   5.34937e+00  8.58598e-01   3.17896e-01   4.63187e-01
Si    5.46309e+00   8.03819e+00   8.24841e+00 -6.13892e-01   1.19704e+00  -5.69031e-01
Si    8.03771e+00   5.47833e+00   8.11986e+00  6.21161e-01  -1.32853e+00   3.01780e-01
Si    6.73589e+00   6.84248e+00   6.77502e+00  3.09988e-01  -4.24467e-01  -2.31371e-02
Si    9.40909e+00   9.40373e+00   6.76500e+00  7.02664e-01   6.75013e-01   1.90561e-01
Si    6.77237e+00   9.51974e+00   9.56072e+00 -3.73053e-02   7.20591e-01  -8.66364e-01
Si    9.35991e+00   6.83517e+00   9.40503e+00  7.11398e-01   4.67753e-01   9.47676e-01
