64
Lattice="10.862 0 0 0 10.862 0 0 0 10.862 " PBC="1 1 1" Properties=species:S:1:pos:R:3:force:R:3 Energy="-263.54787"
Si    1.08223e+01   1.04166e-01   1.08432e+01  1.58292e+00  -1.07084e+00   1.18482e-01
Si    2.72767e+00   2.85980e+00   2.19145e-02 -1.60943e+00  -1.41840e-01   4.73269e-01
Si    2.07768e-03   2.70432e+00   2.78243e+00  3.56279e-01  -2.28930e-01  -1.49892e-01
Si    2.63122e+00   1.07311e+01   2.72856e+00  9.57539e-01   6.91446e-01   1.41560e-01
Si    1.39708e+00   1.38184e+00   1.39153e+00 -3.19227e-01   2.04110e-01  -2.00326e-01
Si    4.16520e+00   4.07675e+00   1.35568e+00 -7.70293e-01  -4.39445e-01   5.93477e-01
Si    1.43569e+00   4.10598e+00   4.13656e+00 -1.16806e+00  -1.56138e+00  -5.51028e-01
Si    3.88521e+00   1.30174e+00   4.17268e+00 -1.26454e-01   8.33282e-01  -5.26364e-02
Si    5.47135e+00   2.58342e-01   1.08133e+01 -1.60918e-01  -1.93415e+00   1.57158e+00
Si    8.10907e+00   2.92863e+00   1.09393e+01 -2.22979e+00  -2.00452e+00  -1.61291e+00
Si    5.32414e+00   2.72049e+00   2.80801e+00 -5.63446e-01   2.64742e-01   1.04732e+00
Si    8.20993e+00  -5.75812e-02   2.65573e+00 -2.20810e+00  -5.11847e-01  -7.98501e-01
Si    6.74002e+00   1.53799e+00   1.52741e+00  1.54028e+00  -1.23248e+00  -1.55015e+00
Si    9.63949e+00   3.99082e+00   1.21662e+00  3.52658e-01   2.04071e+00   2.52805e+00
Si    6.75244e+00   4.16299e+00   4.00930e+00  1.00995e+00  -1.56507e+00   1.16502e+00
Si    9.44507e+00   1.18888e+00   3.99350e+00  2.09759e+00   1.01955e+00   1.13225e+00
Si    1.07737e+01   5.61309e+00   7.64814e-03 -5.45981e-01  -2.70797e-01  -1.41799e+00
Si    2.75351e+00   8.15943e+00  -4.75532e-03  8.16102e-01  -3.89125e-02   1.40553e+00
Si    1.61247e-02   8.33435e+00   2.67273e+00 -8.24338e-01  -2.82497e+00  -3.75629e-01
Si    2.74637e+00   5.28990e+00   2.66323e+00 -1.15576e+00   1.46155e+00  -5.86040e-01
Si    1.30563e+00   6.82659e+00   1.33241e+00  1.29825e+00   1.62174e-01   1.07518e+00
Si    4.16626e+00   9.48670e+00   1.42933e+00  6.32111e-01   1.41171e-01  -8.41326e-01
Si    1.39082e+00   9.34044e+00   4.09866e+00  1.46109e+00   2.47372e-01   5.17812e-01
Si    4.01617e+00   6.59997e+00   4.02716e+00  1.40503e+00   8.89554e-01   9.58778e-01
Si    5.50558e+00   5.51204e+00   2.50876e-01 -1.62037e-01   8.73831e-01  -2.48337e+00
Si    8.08967e+00   8.28956e+00   1.06449e+01  4.35900e-01  -1.48297e+00   1.19370e+00
Si    5.56526e+00   7.96811e+00   2.78965e+00 -1.56706e+00   1.50110e+00   2.63915e-02
Si    8.36318e+00   5.40197e+00   2.75793e+00 -3.56845e-01  -2.09391e-01  -8.15633e-01
Si    6.99855e+00   6.82326e+00   1.42895e+00  6.63515e-01   1.18830e-02  -7.08613e-01
Si    9.50705e+00   9.48426e+00   1.18557e+00 -1.59038e-01   1.01186e+00   6.05727e-01
Si    6.75609e+00   9.52641e+00   4.11889e+00  1.11849e+00  -9.76928e-01  -1.20432e+00
Si    9.59045e+00   6.85436e+00   4.12834e+00  1.80495e+00  -1.45420e+00  -1.70969e+00
Si    1.09851e+01   1.07367e+01   5.33041e+00 -8.20898e-01   2.01735e+00  -3.14171e-01
Si    2.43631e+00   2.66468e+00   5.67398e+00  3.13306e+00   1.08074e+00  -2.14252e+00
Si   -8.85284e-02   2.57667e+00   8.24862e+00 -1.46854e-01   7.55583e-01   4.82796e-01
Si    2.72945e+00  -9.69519e-02   8.12310e+00  4.03102e-01   2.26048e+00   2.85802e-01
Si    1.21452e+00   1.31181e+00   6.87029e+00 -7.69331e-04  -2.41222e+00   8.35529e-01
Si    3.93969e+00   4.11879e+00   6.85829e+00  5.67400e-01  -5.42298e-01  -2.30579e-01
Si    1.14912e+00   4.12024e+00   9.56034e+00  1.69148e+00   2.31299e-01  -1.07688e-01
Si    3.96306e+00   1.48069e+00   9.60075e+00  5.49415e-01  -8.47368e-01  -2.54322e+00
Si    5.39649e+00   1.08582e+01   5.39707e+00 -1.59638e+00  -1.01100e+00  -3.19052e-01
Si    8.06227e+00   2.47424e+00   5.37869e+00  5.74382e-01   2.49495e+00  -7.48622e-01
Si    5.38105e+00   2.72146e+00   8.08550e+00 -7.53196e-01  -6.82263e-01   1.56965e-01
Si    8.14405e+00   2.71975e-02   8.03218e+00  1.00126e+00  -4.47633e-01  -4.66417e-01
Si    6.69804e+00   1.22758e+00   6.68469e+00  5.28966e-02   1.56466e+00   1.82577e+00
Si    9.56852e+00   3.86568e+00   6.76826e+00 -1.07788e+00   8.90150e-02  -8.50100e-01
Si    6.56713e+00   4.17811e+00   9.45643e+00  2.28619e+00  -1.11685e-01   7.76285e-01
Si    9.35324e+00   1.34536e+00   9.62427e+00 -5.40990e-01   7.26803e-01  -9.55160e-01
Si    1.09206e+01   5.34368e+00   5.45525e+00 -2.17383e-01   1.54122e+00   1.02086e+00
Si    2.73733e+00   7.92569e+00   5.51776e+00  1.06965e+00   1.96321e+00  -2.10392e+00
Si    1.08959e+01   8.26770e+00   8.04077e+00  6.94037e-01   5.62676e-01   3.77289e-01
Si    2.77122e+00   5.49774e+00   8.32471e+00 -8.57101e-01   1.84232e-02   4.17187e-02
Si    1.44359e+00   6.82752e+00   6.87098e+00 -1.74533e+00  -2.28502e+00   7.24724e-01
Si    4.06027e+00   9.45782e+00   6.74604e+00  5.77223e-01  -3.43462e-01  -5.41910e-02
Si    1.52422e+00   9.53033e+00   9.56559e+00 -3.06373e+00   2.36712e-01  -5.88286e-01
Si    4.22593e+00   6.94421e+00   9.56067e+00  2.45780e-01  -1.28968e+00   3.32814e-01
Si    5.46296e+00   5.41365e+00   5.51566e+00 -1.34678e+00  -5.61293e-01  -9.27987e-01
Si    8.13930e+00   7.97822e+00   5.30462e+00 -2.46875e-01   3.04518e+00   8.76629e-01
Si    5.57049e+00   8.25193e+00   8.10338e+00 -9.06101e-01  -1.10721e+00  -8.12132e-01
Si    8.21882e+00   5.28849e+00   8.07648e+00 -9.23425e-01   1.10237e+00  -5.21235e-02
Si    6.86195e+00   6.76683e+00   6.69676e+00 -6.08158e-02  -4.44274e-01   1.99439e+00
Si    9.56565e+00   9.51216e+00   6.51146e+00 -1.74038e+00  -9.11124e-01   2.23028e+00
Si    6.77421e+00   9.65814e+00   9.39352e+00 -2.98750e-01   9.37843e-01   6.81911e-01
Si    9.47266e+00   6.93777e+00   9.28678e+00 -1.08140e-01  -1.03764e+00   1.07633e+00
