64
Lattice="10.862 0 0 0 10.862 0 0 0 10.862 " PBC="1 1 1" Properties=species:S:1:pos:R:3:force:R:3 Energy="-263.54673"
Si    1.07778e+01  -1.22423e-01   1.09439e+01  2.45117e-01   8.06054e-01   5.84674e-02
Si    2.77560e+00   2.73707e+00  -1.25528e-01 -9.66185e-01  -4.72135e-01   9.54876e-01
Si    1.46190e-01   2.79113e+00   2.78028e+00 -1.20271e+00   7.91521e-02   1.23822e-01
Si    2.56999e+00   1.07982e+01   2.60056e+00  5.46304e-01   7.40014e-01   3.99342e-01
Si    1.30842e+00   1.40142e+00   1.24231e+00  4.23518e-01  -1.41975e-01   3.27093e-01
Si    4.12158e+00   3.89682e+00   1.47288e+00 -9.42751e-01   1.86406e+00  -1.72357e+00
Si    1.42418e+00   4.22999e+00   4.15897e+00 -3.97000e-01  -3.26060e-01  -1.01717e+00
Si    4.06820e+00   1.24094e+00   3.92913e+00  5.50240e-01   2.05333e-02  -8.11179e-01
Si    5.38950e+00  -2.01295e-02   1.10259e+01  1.23891e+00  -4.63918e-01   9.42307e-01
Si    8.31304e+00   2.56840e+00   1.09970e+01 -1.15808e+00   1.59984e-01  -2.59020e+00
Si    5.54595e+00   2.65249e+00   2.70030e+00 -2.48242e-01  -2.96560e-01   1.59201e+00
Si    8.19605e+00   1.26864e-01   2.94350e+00  3.42267e-01   6.26948e-01   2.93984e-01
Si    6.93080e+00   1.34494e+00   1.45330e+00 -9.50413e-01  -9.95134e-01  -3.29262e-01
Si    9.43642e+00   4.00191e+00   1.40305e+00  1.67925e+00   1.23901e+00   6.18224e-01
Si    6.75826e+00   4.07801e+00   4.17322e+00  6.88886e-02   5.33491e-02  -3.71787e-01
Si    9.63098e+00   1.54112e+00   4.33325e+00 -7.71246e-01  -4.19026e-01  -1.46117e+00
Si    1.07940e+01   5.32065e+00  -1.06471e-01 -7.92605e-01   3.86236e-01   1.02101e+00
Si    2.73947e+00   8.17706e+00  -7.27745e-02 -7.33746e-01  -1.78520e+00  -4.52829e-01
Si   -1.16117e-02   8.12071e+00   2.68822e+00 -9.79067e-01  -1.11431e+00  -6.43951e-01
Si    2.66170e+00   5.47340e+00   2.62301e+00  1.24464e+00  -1.31848e+00   5.65731e-01
Si    1.33232e+00   6.66657e+00   1.21195e+00 -3.96085e-01   1.81501e+00   2.15973e-03
Si    3.96887e+00   9.42673e+00   1.37493e+00  3.27991e-01   7.29435e-01  -4.56400e-01
Si    1.27421e+00   9.49752e+00   4.01137e+00  8.28129e-01  -3.29575e-01   6.88255e-01
Si    4.07722e+00   6.72511e+00   4.00857e+00 -6.25932e-01   1.23936e+00  -9.86064e-01
Si    5.48470e+00   5.21333e+00  -3.86292e-02 -3.02946e-01   1.13333e+00   2.44969e-01
Si    8.10433e+00   8.23399e+00   1.08275e+01 -7.33514e-02   1.08127e+00   1.00970e+00
Si    5.36532e+00   8.05208e+00   2.53969e+00  1.02734e+00   7.53029e-01   1.90169e+00
Si    7.98782e+00   5.42633e+00   2.62646e+00  4.89364e-01  -9.06796e-01   3.97413e-01
Si    6.81189e+00   6.83228e+00   1.20543e+00 -1.21076e+00  -1.43266e+00  -3.34564e-02
Si    9.33310e+00   9.58680e+00   1.54564e+00  1.18171e+00  -1.26533e+00  -1.15013e+00
Si    6.77047e+00   9.53474e+00   4.01612e+00 -2.42421e-01  -1.54521e+00   4.31123e-01
Si    9.37871e+00   6.66892e+00   3.97261e+00  8.32644e-01   1.80909e+00   5.12186e-01
Si    1.09050e+01   1.08525e+01   5.47137e+00  6.87548e-01   8.61554e-01   7.96254e-01
Si    2.88288e+00   2.72212e+00   5.17624e+00  1.62187e-01   1.75644e+00   1.84118e+00
Si    6.62626e-02   2.65367e+00   8.02013e+00 -2.65270e-01  -1.01565e-01  -5.34478e-01
Si    2.83967e+00  -2.37580e-02   8.01157e+00 -2.20549e+00   3.82517e-01   1.86893e+00
Si    1.57944e+00   1.52533e+00   6.60325e+00 -9.56408e-01  -2.32617e+00   1.02268e+00
Si    4.09733e+00   4.11671e+00   6.83949e+00 -1.02949e+00  -4.36561e-01   4.73471e-02
Si    1.22487e+00   4.00273e+00   9.38198e+00  1.28963e+00  -1.96998e-01   1.55115e+00
Si    4.13188e+00   1.18961e+00   9.65422e+00 -1.18402e+00   1.09687e+00  -2.03836e+00
Si    5.42056e+00   1.08735e+01   5.37030e+00 -1.10443e-01  -2.08908e-01  -1.23180e-01
Si    8.15290e+00   2.82140e+00   5.67531e+00 -1.03623e-01   1.38979e-01  -1.09864e+00
Si    5.37458e+00   2.63677e+00   8.27382e+00 -9.57543e-01  -2.22274e-01  -1.29266e+00
Si    8.05492e+00   6.90912e-02   8.35325e+00 -1.85774e-01   6.15616e-01  -1.97585e+00
Si    6.64508e+00   1.38260e+00   6.81280e+00  1.49554e+00  -4.66200e-01   8.48836e-01
Si    9.68040e+00   4.22787e+00   6.78921e+00 -1.74716e+00  -1.91699e+00   1.65584e+00
Si    6.82466e+00   3.84691e+00   9.46114e+00  1.98385e+00   9.18804e-01   1.62280e+00
Si    9.64879e+00   1.28513e+00   9.48632e+00 -6.76581e-01   6.17242e-01   6.50107e-01
Si    1.07864e+01   5.53863e+00   5.44440e+00  1.76984e+00   9.14048e-01  -1.30067e+00
Si    2.81730e+00   8.19111e+00   5.33409e+00 -1.64788e+00  -2.68078e-01  -7.67839e-01
Si    1.07965e+01   8.29369e+00   8.13781e+00 -9.17407e-02  -2.34480e+00   3.73933e-01
Si    2.57566e+00   5.44955e+00   8.29021e+00  6.82996e-01   1.00077e+00  -3.27200e+00
Si    1.29040e+00   7.00838e+00   6.69836e+00  7.23749e-01  -1.44443e+00   1.24511e+00
Si    4.07083e+00   9.51051e+00   6.66728e+00  1.55551e+00  -5.47849e-01   6.66805e-01
Si    1.19873e+00   9.43498e+00   9.52214e+00  2.99074e+00   1.98998e+00  -3.04081e-01
Si    4.15499e+00   6.73166e+00   9.44317e+00 -6.15488e-01  -1.69185e-01   1.49921e+00
Si    5.35007e+00   5.52416e+00   5.41178e+00  1.47475e+00  -1.17526e+00   1.16140e+00
Si    8.21225e+00   8.16378e+00   5.46012e+00 -3.32846e-01   7.03159e-01   1.15047e-01
Si    5.42489e+00   8.15193e+00   8.13085e+00  3.02399e-01   4.28586e-01  -6.45029e-01
Si    8.24399e+00   5.37129e+00   8.21870e+00 -7.16056e-01   8.01715e-01   1.77035e-01
Si    6.84432e+00   6.75604e+00   6.82403e+00 -8.39016e-02   2.49159e-01  -7.65231e-02
Si    9.52519e+00   9.67812e+00   7.00156e+00 -1.70397e+00  -1.46021e-01  -2.34696e+00
Si    6.67549e+00   9.57980e+00   9.56366e+00 -5.23556e-02  -9.03143e-01   1.65345e-01
Si    9.48535e+00   6.93020e+00   9.59624e+00  5.14508e-01  -1.32452e+00  -1.58992e+00
