64
Lattice="10.862 0 0 0 10.862 0 0 0 10.862 " PBC="1 1 1" Properties=species:S:1:pos:R:3:force:R:3 Energy="-263.69132"
Si    1.08329e+01   7.90655e-02   1.07841e+01  3.56544e-01   2.07096e-01   9.31130e-01
Si    2.68555e+00   2.58429e+00   1.61316e-01  7.98616e-01   1.84168e+00  -2.04001e+00
Si   -7.30388e-02   2.65229e+00   2.76119e+00  6.24543e-01   1.29429e+00   5.69789e-01
Si    2.77946e+00   1.09922e+01   2.76118e+00  9.88691e-01  -2.60176e+00  -1.68955e-01
Si    1.39691e+00   1.36117e+00   1.52469e+00 -2.15148e+00  -6.39178e-01  -1.60513e+00
Si    4.08495e+00   3.96624e+00   1.47134e+00  3.73007e-01  -8.91755e-02   3.20688e-01
Si    1.35497e+00   4.05691e+00   4.20202e+00 -8.27885e-01  -9.83710e-01  -1.03703e+00
Si    4.00402e+00   1.33667e+00   4.21256e+00  7.11244e-01   7.00134e-01   9.66059e-01
Si    5.52266e+00  -3.44538e-02   1.08598e+01  6.29303e-01  -2.58077e-01  -5.36854e-01
Si    8.13488e+00   2.80160e+00   1.08402e+01 -3.96303e-01  -3.09868e-01  -1.08756e-01
Si    5.52141e+00   2.54138e+00   2.92623e+00 -1.44246e+00   1.73402e+00  -1.25070e+00
Si    7.98578e+00  -7.95142e-02   2.56799e+00  2.36341e+00   6.76031e-01   2.04051e+00
Si    6.78676e+00   1.42682e+00   1.36839e+00 -6.73084e-02  -3.67456e-01  -1.01613e+00
Si    9.45890e+00   4.10828e+00   1.35997e+00  1.10752e+00  -3.73219e-01   2.81603e-01
Si    6.64992e+00   4.24168e+00   4.00604e+00  1.33183e+00  -9.00062e-01   3.39437e-01
Si    9.55734e+00   1.25236e+00   4.15103e+00 -2.15349e+00  -3.03413e-01  -1.95040e+00
Si    1.09573e+01   5.44279e+00   7.51220e-02 -5.27985e-01   1.75280e-01   9.99174e-01
Si    2.75913e+00   8.33568e+00   1.18946e-01 -1.73181e-02  -1.72168e+00  -1.61592e+00
Si    8.20592e-03   8.22697e+00   2.62489e+00  4.97351e-01  -1.56413e-01   4.02010e-01
Si    2.67842e+00   5.34629e+00   2.77303e+00  7.96791e-01  -1.45308e-01   4.10395e-01
Si    1.46705e+00   6.78859e+00   1.47492e+00 -6.54348e-01   8.29129e-01  -1.42735e+00
Si    4.27227e+00   9.50052e+00   1.44075e+00 -1.68392e+00   1.70773e+00   2.81861e-02
Si    1.48368e+00   9.47618e+00   3.99188e+00 -1.31774e+00   4.28653e-01   1.81608e-01
Si    4.07201e+00   6.74549e+00   4.03160e+00 -8.20577e-01   7.15048e-01   5.92436e-02
Si    5.26531e+00   5.56668e+00   8.41082e-02  4.02135e-01  -2.52574e+00  -3.73642e-01
Si    8.26684e+00   8.13572e+00   1.06918e+01 -1.44353e+00   2.85219e-01   1.38485e+00
Si    5.50178e+00   8.09567e+00   2.70700e+00  1.13442e+00  -1.68851e-01   1.04465e+00
Si    8.16373e+00   5.51688e+00   2.66961e+00 -5.35299e-01   3.93471e-01   2.43222e-02
Si    6.78352e+00   6.80849e+00   1.16778e+00  1.26519e+00   9.87291e-01   1.65296e+00
Si    9.44598e+00   9.53542e+00   1.25424e+00  7.48294e-01   6.83487e-03  -2.41464e-01
Si    6.90500e+00   9.47589e+00   4.18704e+00 -1.09699e+00  -8.11175e-01  -1.38930e+00
Si    9.65293e+00   6.81549e+00   4.04303e+00  5.77980e-02  -1.62610e+00  -9.65403e-01
Si    1.08842e+01   1.07298e+01   5.41185e+00  5.23006e-01   1.09891e-01  -6.75609e-02
Si    2.66506e+00   2.76662e+00   5.61840e+00  6.33124e-02  -1.01051e+00  -8.44388e-01
Si   -1.10279e-03   2.70536e+00   8.19662e+00 -3.21812e-01   1.99079e+00  -4.12335e-01
Si    2.61050e+00   1.40023e-01   8.07505e+00  1.41206e+00  -1.06880e+00   4.05300e-01
Si    1.18844e+00   1.35772e+00   6.80341e+00  7.20066e-01   3.04615e-01  -6.86071e-01
Si    4.04394e+00   4.11152e+00   6.89450e+00  8.19487e-01  -1.29018e+00  -1.35347e-01
Si    1.38052e+00   4.18189e+00   9.55269e+00  2.33378e-01  -2.86343e+00   4.84377e-01
Si    4.11162e+00   1.29295e+00   9.54256e+00 -3.38946e-01   9.86104e-01  -3.37015e-01
Si    5.45776e+00   1.08261e+01   5.46530e+00 -3.01227e-01   3.03990e-01  -1.18275e+00
Si    8.01725e+00   2.69844e+00   5.25301e+00  8.53287e-01   1.14156e+00   2.67688e-01
Si    5.53080e+00   2.76266e+00   8.19107e+00 -1.72380e+00  -6.79578e-01  -3.30107e-01
Si    8.17950e+00   8.88549e-02   8.03410e+00 -7.39423e-01  -5.37824e-01  -6.10836e-01
Si    6.73273e+00   1.44764e+00   6.62390e+00  4.93590e-01  -6.61427e-01   2.08038e+00
Si    9.31786e+00   3.99239e+00   6.83753e+00  2.10937e-01   1.18969e-01   2.14428e-01
Si    6.66992e+00   4.17055e+00   9.58924e+00  3.64736e-01   3.16951e-01   6.10386e-01
Si    9.47647e+00   1.44415e+00   9.41063e+00 -5.11682e-01  -5.84376e-01   1.43959e+00
Si    1.07798e+01   5.29112e+00   5.50643e+00 -3.27314e-02   9.54921e-01  -4.15340e-01
Si    2.64563e+00   8.07676e+00   5.41805e+00  1.66868e+00   4.82677e-01  -1.08436e+00
Si    1.10143e+01   7.97572e+00   8.09341e+00 -2.00443e+00   1.30799e+00   4.48265e-01
Si    2.70472e+00   5.38140e+00   8.14475e+00  4.68847e-02   1.42362e+00   3.74513e-01
Si    1.41471e+00   6.66467e+00   6.67673e+00 -7.00892e-01  -6.52027e-01   1.06620e+00
Si    3.96700e+00   9.61166e+00   6.65408e+00  2.38317e-02  -1.18077e+00   1.89701e+00
Si    1.34432e+00   9.59353e+00   9.41705e+00  2.67368e-01  -8.87672e-01   7.47365e-01
Si    4.08604e+00   6.77106e+00   9.44540e+00 -9.27111e-01   2.59191e+00  -7.76303e-02
Si    5.26315e+00   5.41261e+00   5.43636e+00  1.60683e+00   8.41179e-01   6.20331e-01
Si    8.31946e+00   8.00350e+00   5.34425e+00 -1.64152e+00   1.25946e+00   8.30695e-01
Si    5.50356e+00   8.26276e+00   8.03988e+00 -1.79746e+00  -1.44705e+00  -7.88327e-01
Si    8.02408e+00   5.49847e+00   8.24994e+00  9.01410e-01  -7.31575e-01  -7.40342e-01
Si    6.84095e+00   6.79808e+00   6.68916e+00 -1.10795e+00  -3.09123e-01   2.81506e-01
Si    9.47189e+00   9.43385e+00   6.70540e+00  1.48147e+00  -5.39821e-01   1.54083e+00
Si    6.88521e+00   9.43794e+00   9.36823e+00  1.78366e-01   2.06737e+00   7.84558e-01
Si    9.55026e+00   6.68941e+00   9.60772e+00  1.23022e+00   2.41431e-01  -2.29059e+00
