64
Lattice="10.862 0 0 0 10.862 0 0 0 10.862 " PBC="1 1 1" Properties=species:S:1:pos:R:3:force:R:3 Energy="-261.92474"
Si    1.08311e+01  -8.87865e-02   1.09547e+01  9.08189e-01  -1.13121e+00  -1.08865e+00
Si    2.62744e+00   2.80446e+00  -1.73653e-01  2.20074e+00  -2.12178e+00   1.32023e+00
Si    2.38000e-01   2.79512e+00   2.57421e+00 -1.98996e+00   7.71879e-01   1.89320e+00
Si    2.66065e+00   1.08981e+01   2.67549e+00  6.52859e-01   4.41054e-01  -5.43619e-01
Si    1.33815e+00   1.32449e+00   1.25713e+00  1.27442e+00   5.27702e-01  -4.40986e-01
Si    4.08421e+00   4.10029e+00   1.26569e+00 -1.08558e+00   7.49504e-02  -1.24924e-01
Si    1.54071e+00   4.17053e+00   4.11736e+00 -1.65056e+00   1.12945e-01  -1.87160e+00
Si    4.10494e+00   1.36904e+00   3.97545e+00 -6.38731e-01  -2.41471e-02   6.39179e-01
Si    5.43883e+00   1.91025e-02   1.09432e+01  3.08584e-02  -1.05606e+00  -8.72348e-01
Si    8.16046e+00   2.53234e+00   1.08296e+01 -3.95504e-01   1.12471e+00   1.37616e+00
Si    5.37639e+00   2.71677e+00   2.59955e+00 -2.68891e-01  -7.41832e-01   1.05081e-01
Si    8.22555e+00   3.74199e-02   2.81398e+00 -1.19594e+00  -1.93788e-01  -5.67725e-01
Si    6.71406e+00   1.31515e+00   1.37577e+00  1.81902e+00   4.10576e-02   6.51143e-01
Si    9.36140e+00   4.01423e+00   1.40475e+00  7.67460e-01   1.56672e-02  -3.90695e-01
Si    6.77408e+00   3.74840e+00   4.06146e+00  1.30764e+00   2.28259e+00   6.18108e-01
Si    9.59162e+00   1.54428e+00   4.07789e+00  1.42816e+00  -1.35447e+00   5.33300e-01
Si    1.06092e+01   5.33405e+00  -1.57939e-01  8.55396e-01   1.93715e-02   1.06586e+00
Si    2.67503e+00   7.88333e+00  -4.33764e-03 -7.67872e-01   2.20539e+00   3.92672e-01
Si   -2.55655e-02   8.20842e+00   2.82009e+00  3.35360e-01  -1.58284e+00  -9.16497e-01
Si    2.65489e+00   5.53735e+00   2.59839e+00  1.10226e+00  -2.39316e-01   3.86529e-01
Si    1.06330e+00   6.70947e+00   1.27652e+00  7.75631e-01   2.77738e-01   4.58594e-01
Si    3.98192e+00   9.56368e+00   1.28572e+00 -7.54719e-01  -1.45038e+00  -8.56760e-02
Si    1.36174e+00   9.57374e+00   3.99194e+00 -1.98971e-01   1.41676e-01   2.28028e+00
Si    4.07902e+00   6.78706e+00   4.15386e+00 -4.11632e-01  -6.18202e-01  -9.58813e-01
Si    5.65744e+00   5.27045e+00   1.31602e-02 -1.97392e+00   2.49877e+00  -9.03371e-02
Si    8.10287e+00   8.04549e+00   1.09362e+01  9.80923e-01   8.96915e-01   1.89272e+00
Si    5.23693e+00   8.15315e+00   2.66434e+00  6.39844e-01  -3.11743e-01   2.32694e-02
Si    8.07096e+00   5.41192e+00   2.87540e+00  6.01616e-01  -9.10594e-01   2.76820e-02
Si    6.81100e+00   6.80568e+00   1.54567e+00 -1.17836e+00  -8.98667e-01  -1.37704e+00
Si    9.51407e+00   9.40475e+00   1.47569e+00 -1.21761e+00   1.05557e+00  -8.77057e-01
Si    6.62543e+00   9.44523e+00   3.96270e+00  1.15989e+00   1.51854e+00   3.97694e-01
Si    9.50248e+00   6.84999e+00   4.12245e+00 -6.15425e-01  -1.34397e-01   3.16826e-01
Si    1.08893e+01   1.08486e+01   5.62607e+00 -7.17739e-01   5.81287e-01  -2.10251e+00
Si    2.77691e+00   2.78874e+00   5.35609e+00  1.26226e+00  -1.14854e+00   6.46705e-01
Si    4.52138e-02   2.66524e+00   8.08587e+00  1.06982e+00  -1.12042e+00   1.43019e+00
Si    2.79215e+00   7.02734e-02   8.01052e+00  1.00188e+00  -2.06885e+00   2.00471e+00
Si    1.53499e+00   1.36277e+00   6.73365e+00 -1.69996e+00   1.31922e+00  -3.26213e-01
Si    4.10068e+00   4.08734e+00   6.78630e+00 -3.93987e-01   8.45210e-01  -1.27064e+00
Si    1.32218e+00   4.08342e+00   9.42637e+00 -1.29046e+00   7.79274e-01  -8.97144e-01
Si    4.23744e+00   1.30830e+00   9.45170e+00 -2.23326e+00   1.19129e+00   1.04381e-02
Si    5.44038e+00   1.08716e+01   5.40260e+00 -7.63745e-02  -1.04002e-01  -7.72179e-02
Si    8.31564e+00   2.77364e+00   5.60786e+00 -4.52468e-01  -1.17254e-01   1.07479e-01
Si    5.38834e+00   2.76631e+00   8.05883e+00  2.09656e+00  -6.93792e-01   1.38787e+00
Si    8.07718e+00   1.03381e-01   8.33953e+00 -3.46539e-02   7.36527e-02   6.73109e-01
Si    6.81890e+00   1.32973e+00   6.83329e+00 -1.62348e-01   8.37541e-01  -4.95360e-01
Si    9.70780e+00   4.22245e+00   7.03402e+00 -3.63231e-01  -1.37566e-02  -3.57210e+00
Si    6.93248e+00   3.98509e+00   9.50894e+00 -4.90795e-01  -4.79004e-01  -1.43655e+00
Si    9.60611e+00   1.31781e+00   9.60743e+00  1.95355e-01   3.93811e-04  -1.36865e+00
Si    1.09891e+01   5.54424e+00   5.36513e+00 -4.12398e-01  -3.73274e-01   1.78242e+00
Si    2.77210e+00   8.27586e+00   5.42040e+00 -1.18611e+00  -1.29383e+00  -9.77243e-01
Si    1.06519e+01   8.15700e+00   8.02740e+00  2.19654e+00   8.62128e-01   1.41924e+00
Si    2.65245e+00   5.43602e+00   8.06019e+00 -3.56920e-01  -1.10100e+00  -4.87859e-01
Si    1.43532e+00   6.92431e+00   6.80958e+00 -1.15652e+00   6.36730e-02  -1.09317e+00
Si    4.11522e+00   9.42861e+00   6.73651e+00  8.13782e-01   1.76700e+00   1.20059e+00
Si    1.44698e+00   9.42909e+00   9.45106e+00 -1.30673e+00   3.02102e-01  -2.16139e-01
Si    3.90085e+00   6.62619e+00   9.42544e+00  3.37376e+00  -4.19296e-01   1.94978e+00
Si    5.58101e+00   5.29530e+00   5.34306e+00 -1.29246e+00   9.16296e-01   7.44996e-01
Si    8.03573e+00   8.25633e+00   5.36966e+00  6.70518e-01  -8.53295e-02   1.04554e+00
Si    5.32704e+00   8.09250e+00   8.27806e+00  1.56642e+00   6.55943e-01  -3.12020e-01
Si    8.18867e+00   5.45277e+00   8.14510e+00 -1.00403e+00   1.20626e+00   7.68016e-01
Si    6.76010e+00   6.84589e+00   6.74866e+00  3.41708e-02  -8.17453e-01   6.42965e-01
Si    9.26797e+00   9.66434e+00   6.97872e+00  1.00815e+00  -1.08215e+00  -2.69688e+00
Si    6.92034e+00   9.50156e+00   9.73188e+00 -2.88315e+00  -5.06407e-02  -1.77013e+00
Si    9.42829e+00   6.91969e+00   9.51812e+00 -2.72201e-01  -1.66978e+00  -8.86795e-01
