64
Lattice="10.862 0 0 0 10.862 0 0 0 10.862 " PBC="1 1 1" Properties=species:S:1:pos:R:3:force:R:3 Energy="-260.55555"
Si    1.06907e+01   6.27099e-04   1.07332e+01  2.95803e+00  -2.13061e+00   1.75850e+00
Si    2.54280e+00   2.52405e+00   6.97483e-03  1.47268e+00   1.70946e+00  -1.30784e+00
Si    7.70710e-02   2.82513e+00   2.76972e+00 -2.90453e-01  -1.58940e+00   7.07353e-01
Si    2.43612e+00   1.08460e+01   2.70549e+00  1.05805e+00   7.81155e-01   5.01616e-01
Si    1.11505e+00   1.37308e+00   1.26214e+00  3.43993e-02  -1.23209e+00   1.44100e+00
Si    4.13477e+00   3.89237e+00   1.10467e+00 -7.46989e-01  -5.50467e-01   1.65448e+00
Si    1.57979e+00   4.08573e+00   3.96860e+00 -8.09962e-01   8.97872e-01   8.84992e-01
Si    4.10382e+00   1.38327e+00   3.96915e+00 -2.21234e+00  -4.36696e-01  -9.57647e-02
Si    5.37501e+00  -1.74591e-01   1.08824e+01  1.27020e+00   2.34656e+00   1.42454e+00
Si    8.30594e+00   2.72296e+00   1.08301e+01 -4.96813e-01  -1.35127e+00   1.23585e+00
Si    5.46696e+00   2.66630e+00   2.65992e+00 -1.09416e+00  -1.49038e-02  -1.20407e+00
Si    8.41619e+00   1.67705e-01   2.95547e+00 -2.46336e+00  -2.79044e+00  -2.52277e+00
Si    6.89743e+00   1.30472e+00   1.48533e+00  3.62313e-01  -4.94608e-01  -1.92729e+00
Si    9.54536e+00   4.04244e+00   1.51717e+00 -3.82810e-01  -4.68696e-02  -1.72181e+00
Si    6.66877e+00   3.96802e+00   4.01861e+00  3.16372e+00   9.65373e-02   1.03793e+00
Si    9.57917e+00   1.46042e+00   4.22298e+00  1.33900e+00   2.41205e+00   2.15656e-01
Si    1.07714e+01   5.24216e+00  -6.06407e-02 -8.50171e-01   3.15597e+00   1.77406e+00
Si    2.70218e+00   8.04608e+00  -1.16619e-02 -1.06777e+00   2.58667e+00  -7.49454e-01
Si    3.93673e-02   8.22280e+00   2.76527e+00 -1.07094e+00  -1.00131e+00  -1.16072e+00
Si    2.82419e+00   5.37479e+00   2.42213e+00 -6.63474e-01   9.62311e-01   3.92924e-01
Si    1.20746e+00   6.89068e+00   1.21864e+00  4.59930e-01  -2.49938e+00   9.71133e-01
Si    3.89961e+00   9.56589e+00   1.37626e+00  6.54809e-01  -1.65221e+00   7.63327e-01
Si    1.23692e+00   9.41847e+00   4.21104e+00  5.25267e-01   1.86466e+00  -5.82842e-01
Si    4.03929e+00   6.77572e+00   3.98189e+00  1.55750e+00  -5.27812e-01  -7.06032e-01
Si    5.46191e+00   5.27525e+00  -7.82564e-02  1.16757e+00   1.11376e+00   1.15584e-01
Si    8.02116e+00   8.19518e+00   1.11318e+01  4.17882e-01  -4.74152e-01  -2.78083e+00
Si    5.49870e+00   8.29227e+00   2.81639e+00 -1.56263e+00  -1.33989e+00  -2.06071e+00
Si    8.18851e+00   5.31800e+00   2.81613e+00 -9.52628e-01   6.98644e-01  -2.18485e-01
Si    6.78707e+00   6.64990e+00   1.44204e+00 -1.08701e+00   2.54943e-01   6.61605e-01
Si    9.55161e+00   9.50817e+00   1.38887e+00 -6.17273e-01   1.26330e+00   1.15535e+00
Si    6.81316e+00   9.61197e+00   4.11334e+00  1.37528e+00   1.91716e-02   5.01980e-02
Si    9.45665e+00   6.88911e+00   4.00856e+00 -1.41007e-01  -5.56005e-01   1.92848e+00
Si    1.08003e+01   1.09280e+01   5.48673e+00  7.49352e-01  -1.11328e+00   8.24843e-02
Si    2.75941e+00   2.69436e+00   5.47887e+00  5.38878e-01  -2.97618e-01  -1.72077e+00
Si    4.90564e-02   2.77809e+00   8.06502e+00  1.19379e+00  -1.89436e+00   6.59283e-01
Si    2.83998e+00   2.83361e-02   8.21258e+00  1.24370e+00  -3.90333e-01  -1.06103e+00
Si    1.52981e+00   1.20324e+00   6.75368e+00 -1.66633e+00   2.08859e+00   8.98027e-01
Si    4.10626e+00   4.09986e+00   6.67080e+00  1.99721e+00   8.22433e-01   4.10326e-01
Si    1.31324e+00   4.10821e+00   9.58113e+00  1.88266e+00  -1.57635e+00  -2.43636e+00
Si    4.19389e+00   1.36152e+00   9.63032e+00 -1.36920e+00  -3.76937e-01  -4.68541e-01
Si    5.43212e+00   1.09492e+01   5.28483e+00  6.14302e-01   1.99395e-01   2.71575e+00
Si    8.16543e+00   2.76796e+00   5.53620e+00 -3.23604e-01   4.36364e-01  -7.45454e-01
Si    5.41738e+00   2.68825e+00   8.17396e+00  5.76870e-01   1.18827e+00  -1.99495e-01
Si    8.04783e+00  -1.86407e-02   8.07178e+00  5.58535e-01   2.75402e-02   2.69295e+00
Si    6.86008e+00   1.40306e+00   6.89142e+00 -2.10199e+00   9.43732e-02  -2.20296e+00
Si    9.62570e+00   4.14409e+00   6.76464e+00 -4.10108e-01   8.99849e-01  -6.86092e-01
Si    6.95469e+00   4.02004e+00   9.46690e+00 -9.56322e-01  -7.44075e-02  -2.66935e-01
Si    9.59778e+00   1.25167e+00   9.45237e+00 -2.73966e+00   2.77160e+00  -2.69339e+00
Si    1.10078e+01   5.54919e+00   5.35859e+00 -1.03069e-01  -3.76882e-01  -3.82500e-02
Si    2.69399e+00   8.05494e+00   5.30196e+00  9.78358e-01   9.97482e-01   2.20632e+00
Si    1.07400e+01   8.32178e+00   8.05731e+00 -6.88423e-02  -1.18123e+00   1.50571e-01
Si    2.77651e+00   5.42929e+00   8.08558e+00 -3.99649e-01  -1.22491e+00   1.48070e+00
Si    1.49310e+00   6.84740e+00   6.90012e+00 -2.08874e+00   7.52494e-01  -1.35875e+00
Si    4.16648e+00   9.47619e+00   6.72668e+00 -1.87231e+00   8.33361e-01  -1.07791e+00
Si    1.36221e+00   9.61929e+00   9.35320e+00 -4.06792e-01  -1.57732e+00   2.15148e+00
Si    3.99739e+00   6.66799e+00   9.60967e+00  9.80348e-01   2.27420e-01  -1.03885e+00
Si    5.75911e+00   5.59807e+00   5.26876e+00 -4.13839e+00  -5.75000e-01   8.82239e-01
Si    7.88795e+00   8.07276e+00   5.55810e+00  9.98222e-01  -3.40936e-02  -1.13695e+00
Si    5.22322e+00   8.18713e+00   8.25136e+00  7.01243e-01  -1.45933e+00   4.96821e-01
Si    8.24755e+00   5.46120e+00   8.16724e+00 -4.53246e-01  -3.80469e-01   4.17053e-02
Si    6.61658e+00   6.72968e+00   7.08822e+00  1.23082e+00   6.71327e-01  -8.55066e-01
Si    9.24218e+00   9.64568e+00   6.63895e+00  1.59170e+00  -1.75451e+00   6.33518e-01
Si    6.67422e+00   9.46387e+00   9.47511e+00  1.42099e+00  -4.08164e-01   7.60012e-01
Si    9.43164e+00   6.82268e+00   9.59478e+00  5.34474e-01   1.20972e+00   8.86672e-02
