64
Lattice="10.862 0 0 0 10.862 0 0 0 10.862 " PBC="1 1 1" Properties=species:S:1:pos:R:3:force:R:3 Energy="-264.86979"
Si    1.08857e+01  -1.26591e-01   1.07188e+01 -7.60826e-02   1.61290e+00   1.26948e+00
Si    2.62809e+00   2.76476e+00   9.53976e-02  1.14209e+00   1.27817e+00  -1.23099e+00
Si    7.24380e-02   2.68217e+00   2.73735e+00 -1.32656e+00  -2.01428e+00  -8.84506e-01
Si    2.83552e+00   1.08315e+01   2.71496e+00 -6.96071e-01  -6.28610e-01  -6.68486e-01
Si    1.42046e+00   1.31613e+00   1.24280e+00 -1.26992e+00  -1.38671e+00   1.92403e+00
Si    4.05182e+00   4.12021e+00   1.40320e+00 -9.08998e-02  -1.69143e+00   1.08357e+00
Si    1.13478e+00   4.11222e+00   4.04840e+00  1.77509e+00  -8.34585e-01   1.53441e+00
Si    4.05923e+00   1.37319e+00   4.17126e+00 -9.93134e-02   5.40277e-03   2.36163e-01
Si    5.45991e+00   4.53250e-02   1.08831e+01 -3.92647e-02   1.19524e+00  -1.74056e+00
Si    8.02915e+00   2.68952e+00   1.10102e+01  4.72287e-01   1.61480e+00  -1.06536e+00
Si    5.46550e+00   2.72248e+00   2.87855e+00 -1.35134e+00   6.33788e-01  -9.48644e-01
Si    8.13201e+00   1.21703e-01   2.58125e+00  9.53973e-01  -1.68766e+00   2.01323e+00
Si    6.73557e+00   1.41729e+00   1.46760e+00 -1.21061e+00  -2.23113e-01  -8.07539e-01
Si    9.57525e+00   3.98233e+00   1.37430e+00 -4.82723e-01   2.83651e-01  -4.08390e-01
Si    6.85527e+00   3.98931e+00   4.19576e+00  7.20612e-01   5.22389e-01  -1.91622e+00
Si    9.51551e+00   1.24970e+00   4.11175e+00 -8.32956e-01   2.37551e+00  -2.68357e+00
Si    1.08243e+01   5.40722e+00  -5.67162e-02 -5.78193e-01   1.45450e-01   9.20028e-01
Si    2.64335e+00   8.16953e+00  -7.93633e-02  1.09457e+00  -2.53919e+00   3.16837e-01
Si   -1.19723e-02   8.21940e+00   2.82414e+00  5.20805e-03  -1.37684e+00  -8.38659e-01
Si    2.55730e+00   5.29965e+00   2.74019e+00  9.92324e-01   8.98245e-01  -5.38001e-01
Si    1.30734e+00   6.66677e+00   1.35789e+00 -3.03265e-01   2.22709e+00   9.05802e-02
Si    4.14243e+00   9.44901e+00   1.09234e+00 -2.82501e-01  -1.11943e-01   3.62840e+00
Si    1.35365e+00   9.52251e+00   4.20306e+00  1.18235e+00   1.68372e-01  -1.03790e+00
Si    4.04562e+00   6.67196e+00   3.92038e+00  4.73091e-01   1.20867e+00   8.98726e-01
Si    5.35828e+00   5.43312e+00   7.15657e-02 -3.39371e-01   1.61466e+00  -1.14699e-01
Si    8.22318e+00   8.05550e+00   1.09495e+01 -6.74646e-01   8.13262e-01  -1.02523e+00
Si    5.54950e+00   8.15967e+00   2.70517e+00 -1.80448e+00   9.19375e-02  -6.09157e-01
Si    8.16451e+00   5.31829e+00   2.66757e+00 -4.82227e-01   9.19994e-02   8.82601e-01
Si    6.79732e+00   6.73619e+00   1.38474e+00  3.56125e-01  -2.87760e-01  -9.89215e-02
Si    9.53256e+00   9.54884e+00   1.38903e+00  1.33960e-01  -5.17740e-01  -6.29487e-01
Si    6.85431e+00   9.58379e+00   4.04444e+00  8.39988e-01  -2.36789e-01   5.11922e-02
Si    9.34646e+00   6.79886e+00   4.06609e+00  3.27507e-01   1.10844e+00   6.04711e-01
Si    1.07836e+01   1.09354e+01   5.37297e+00  2.14853e+00  -1.65768e+00   1.97218e+00
Si    2.47432e+00   2.67123e+00   5.49299e+00  9.65285e-01   4.99193e-01  -9.61168e-01
Si   -9.03398e-02   2.83397e+00   8.20064e+00  4.71019e-01  -9.71916e-01   7.19024e-01
Si    2.82657e+00   4.65383e-02   8.00928e+00 -3.52818e-01  -1.85278e-01   1.80232e+00
Si    1.23546e+00   1.29893e+00   6.91403e+00 -6.01132e-01   9.17993e-01  -7.74092e-01
Si    4.05996e+00   4.02489e+00   6.65492e+00  2.43059e-01   8.12845e-01  -2.06896e-01
Si    1.36531e+00   4.17223e+00   9.55716e+00  3.27987e-01  -8.73252e-01  -1.45401e+00
Si    3.96142e+00   1.51483e+00   9.53254e+00  1.85869e+00  -9.74590e-01  -6.31356e-01
Si    5.65593e+00   1.09755e+01   5.43051e+00 -1.88544e+00  -2.14275e-01  -9.79512e-02
Si    8.21654e+00   2.63582e+00   5.40473e+00 -1.75436e-01   3.05592e-02   1.62992e+00
Si    5.47136e+00   2.83424e+00   8.10455e+00 -1.07993e+00   8.62857e-02   1.59425e+00
Si    8.14820e+00  -1.72649e-01   8.22039e+00  1.02266e+00   2.08064e+00  -9.33120e-01
Si    6.81487e+00   1.41941e+00   6.90335e+00  1.79189e+00  -7.24020e-01  -1.29643e-01
Si    9.47589e+00   4.10005e+00   6.75001e+00 -6.67680e-02  -1.25027e-01  -6.38441e-02
Si    6.71218e+00   4.23301e+00   9.64191e+00  1.50212e+00  -2.03962e+00  -1.46502e+00
Si    9.41136e+00   1.42450e+00   9.63569e+00  3.64531e-01  -1.15023e+00  -1.48786e+00
Si    1.07645e+01   5.48500e+00   5.38149e+00  4.59828e-02   5.10739e-01   7.05819e-01
Si    2.79378e+00   8.07187e+00   5.46538e+00  1.09841e+00   1.31009e+00  -1.01239e+00
Si    1.09977e+01   8.13587e+00   8.17203e+00 -8.24634e-01  -5.59826e-01  -1.33455e+00
Si    2.72943e+00   5.42621e+00   8.01037e+00  5.74244e-01  -9.03534e-01   1.27538e+00
Si    1.45220e+00   6.75568e+00   6.72172e+00 -1.89277e+00   1.92191e-01   1.53526e-01
Si    4.27376e+00   9.59271e+00   6.75136e+00 -1.29402e+00  -6.43063e-01  -1.11286e+00
Si    1.48114e+00   9.49552e+00   9.43460e+00 -2.87294e-01   9.97520e-01  -1.21165e+00
Si    4.10958e+00   6.75188e+00   9.39433e+00 -1.68398e+00  -1.63257e-01   1.37094e+00
Si    5.54620e+00   5.44825e+00   5.29431e+00 -1.88974e+00  -1.59056e-01   1.19015e+00
Si    8.09395e+00   8.26299e+00   5.64825e+00 -9.66246e-02  -1.01307e+00  -3.84955e+00
Si    5.35671e+00   8.08841e+00   8.08591e+00  1.71002e+00   9.94940e-01   5.09607e-01
Si    8.15087e+00   5.44209e+00   8.11686e+00 -1.29069e+00   1.39238e-01   1.00645e-02
Si    6.74627e+00   6.83139e+00   6.74139e+00  1.79287e-01  -1.10411e+00   1.11447e+00
Si    9.61740e+00   9.46523e+00   6.68265e+00  1.86053e-01   7.44683e-01   3.02246e+00
Si    6.76371e+00   9.43631e+00   9.51274e+00 -2.12572e-01  -1.06081e+00   9.67929e-01
Si    9.50279e+00   6.75011e+00   9.43682e+00  6.15321e-01   8.52342e-01   4.80299e-01
