64
Lattice="10.862 0 0 0 10.862 0 0 0 10.862 " PBC="1 1 1" Properties=species:S:1:pos:R:3:force:R:3 Energy="-263.18562"
Si    1.07882e+01  -7.75624e-02   1.10587e+01 -8.47449e-01   2.22381e+00  -1.69598e+00
Si    2.81489e+00   2.60815e+00  -6.85110e-02 -6.79157e-01   1.87674e-01  -4.73698e-01
Si    8.93006e-02   2.58834e+00   2.65617e+00 -1.54529e-01   9.51481e-01  -1.10039e-01
Si    2.84112e+00   1.08289e+01   2.67878e+00 -1.46906e+00   7.33251e-01  -8.81078e-02
Si    1.39225e+00   1.31256e+00   1.19090e+00  1.13020e+00  -5.42053e-01   2.40674e+00
Si    4.18373e+00   3.87330e+00   1.25358e+00 -8.46812e-01   1.40871e+00   2.16900e+00
Si    1.30391e+00   4.07327e+00   3.97469e+00  6.78504e-01   1.30545e-01   6.64525e-01
Si    4.08074e+00   1.36512e+00   4.14053e+00  1.39238e+00  -7.53280e-01  -1.25598e+00
Si    5.45583e+00   2.68256e-02   1.07900e+01 -6.95004e-01  -1.63744e+00  -4.43628e-01
Si    8.10952e+00   2.76326e+00   1.09914e+01 -8.56614e-01   7.93644e-02   4.12078e-02
Si    5.54176e+00   2.67428e+00   2.84402e+00  3.15033e-01  -1.53987e-01  -8.19191e-01
Si    8.10647e+00  -1.79981e-01   2.82816e+00  4.83212e-01   2.05722e+00   3.21319e-01
Si    6.80897e+00   1.13343e+00   1.41202e+00  1.58022e-01   2.28190e+00   4.82298e-01
Si    9.61981e+00   4.05033e+00   1.42811e+00 -8.31308e-01  -1.11360e+00  -4.74351e-01
Si    6.99910e+00   4.11274e+00   4.16930e+00 -2.02619e+00  -3.81842e-01  -6.40988e-01
Si    9.46972e+00   1.46648e+00   4.01980e+00 -2.63232e-01  -2.08492e+00  -2.14028e-01
Si    1.07775e+01   5.43552e+00   7.89081e-02  1.01803e+00  -1.49475e+00  -1.75616e+00
Si    2.63056e+00   8.21318e+00  -1.66091e-01  3.61691e-01  -2.01074e+00   2.01142e+00
Si    7.18567e-02   8.27489e+00   2.66848e+00 -1.15484e+00  -3.42382e-01   9.88165e-01
Si    2.60541e+00   5.40209e+00   2.58842e+00  1.47123e+00  -1.51778e+00  -8.17632e-01
Si    1.24411e+00   6.72038e+00   1.27910e+00  1.56576e+00   2.62443e+00   2.38367e-01
Si    4.08590e+00   9.39370e+00   1.24528e+00  4.22632e-01   5.75846e-01   4.65257e-01
Si    1.17535e+00   9.84504e+00   4.18156e+00  2.10665e+00  -2.52382e+00  -1.63996e+00
Si    3.96261e+00   6.71343e+00   3.94330e+00 -2.59287e-01   3.57052e-01   1.63059e+00
Si    5.38932e+00   5.44788e+00   6.90677e-02 -1.83568e+00  -7.29769e-01  -1.91702e+00
Si    7.99637e+00   8.11220e+00   1.08523e+01  2.36387e-01  -9.85846e-02   5.02764e-01
Si    5.36573e+00   8.03569e+00   2.75940e+00  8.33943e-02   1.54428e+00  -4.47174e-01
Si    8.17654e+00   5.32351e+00   2.61608e+00 -1.37344e-01   2.15098e+00   1.21414e+00
Si    6.59433e+00   6.67307e+00   1.38757e+00  3.02211e+00   1.22917e+00   6.27516e-01
Si    9.40690e+00   9.52335e+00   1.41435e+00 -3.85657e-01  -2.25558e+00  -3.60981e-01
Si    6.71506e+00   9.49046e+00   4.17360e+00 -7.43131e-01  -8.60149e-01   1.34619e-01
Si    9.40395e+00   6.92763e+00   4.03794e+00  5.29347e-01  -3.47847e-01  -2.18981e-01
Si    1.07564e+01   1.11059e+01   5.53530e+00 -2.55530e-01   4.91720e-01  -1.68476e+00
Si    2.82777e+00   2.77734e+00   5.29561e+00 -1.67935e+00   6.65191e-01   1.53986e+00
Si    3.17187e-02   2.78747e+00   8.25578e+00 -3.83103e-01   1.65350e-01  -9.63429e-01
Si    2.64481e+00  -1.09017e-01   7.97916e+00 -7.80408e-01   1.27471e+00   1.02128e+00
Si    1.31449e+00   1.46317e+00   6.71641e+00  1.63841e+00   9.94091e-01   1.28650e+00
Si    4.35971e+00   4.02500e+00   6.63380e+00 -1.71702e+00   1.66091e-01   1.25758e+00
Si    1.45316e+00   4.05585e+00   9.57387e+00 -5.04347e-01   9.37572e-01   5.75229e-02
Si    4.01555e+00   1.26199e+00   9.38640e+00  9.32828e-01   3.48082e-02  -5.13271e-01
Si    5.51360e+00   1.09835e+01   5.53638e+00 -3.96080e-01  -7.04806e-01  -3.47270e-01
Si    8.15125e+00   2.60581e+00   5.45646e+00  1.10703e+00   1.85091e+00   1.73822e+00
Si    5.55734e+00   2.66225e+00   8.19931e+00 -1.36141e+00  -2.31139e-01  -4.86021e-01
Si    8.37021e+00  -7.55428e-02   8.25260e+00 -2.84093e-01   9.19930e-01   2.64826e-01
Si    6.96839e+00   1.27756e+00   7.00585e+00 -3.30277e-01   2.60627e-01  -1.12701e+00
Si    9.53075e+00   4.22467e+00   6.81556e+00  5.67623e-01  -1.65581e+00  -1.06572e+00
Si    6.65450e+00   4.12849e+00   9.55008e+00  1.88021e+00  -8.13798e-01   8.12226e-01
Si    9.50868e+00   1.49567e+00   9.67873e+00  7.20405e-01  -1.67660e+00  -4.23029e-01
Si    1.09498e+01   5.61717e+00   5.35294e+00 -1.46051e+00  -1.17667e+00   5.01445e-02
Si    2.61248e+00   8.18548e+00   5.33823e+00 -1.97458e-01   2.85655e-01  -1.38719e+00
Si    1.08120e+01   8.16932e+00   8.17332e+00  9.46671e-01  -1.39200e-01   8.39653e-01
Si    2.80175e+00   5.34051e+00   8.07814e+00  2.83818e-01  -2.60371e-02  -4.67882e-01
Si    1.42471e+00   6.84189e+00   6.78503e+00 -2.98907e-01  -5.82311e-02   9.09560e-01
Si    3.99696e+00   9.51328e+00   6.56704e+00  1.18879e+00  -6.40375e-01   1.57276e+00
Si    1.26486e+00   9.64868e+00   9.68166e+00 -1.42940e-01  -1.07637e+00  -3.54874e+00
Si    4.05217e+00   6.78968e+00   9.45692e+00 -5.67652e-01  -8.30367e-01   5.32595e-01
Si    5.53619e+00   5.56790e+00   5.37860e+00  6.67284e-01  -1.27544e-01   6.43347e-02
Si    8.03997e+00   8.20262e+00   5.60072e+00  1.86328e+00   4.87388e-01  -1.13840e+00
Si    5.30055e+00   8.02465e+00   8.02647e+00  2.10784e-01   2.71164e+00   3.81290e-01
Si    8.05181e+00   5.36338e+00   8.15128e+00  1.25755e+00   1.79480e-01   1.82308e+00
Si    6.87669e+00   6.82563e+00   6.98979e+00 -1.58110e+00  -4.93224e-01  -2.51496e+00
Si    9.65101e+00   9.60816e+00   6.72570e+00 -1.78331e+00  -1.71671e+00   1.21521e+00
Si    6.76370e+00   9.50501e+00   9.33785e+00 -6.17886e-01  -8.86358e-01   8.65309e-01
Si    9.44720e+00   6.69417e+00   9.57861e+00 -7.12554e-01   1.14090e+00  -1.08828e+00
