64
Lattice="10.862 0 0 0 10.862 0 0 0 10.862 " PBC="1 1 1" Properties=species:S:1:pos:R:3:force:R:3 Energy="-262.33963"
Si    1.08685e+01   8.71364e-03   1.08179e+01  1.85823e+00  -7.84054e-01   1.01351e-01
Si    2.57906e+00   2.80097e+00  -1.07084e-01  1.04957e+00  -1.10883e+00  -1.92328e-01
Si    9.39264e-02   2.54034e+00   2.85180e+00 -1.78336e-01   1.37519e+00  -6.92254e-01
Si    2.65128e+00   1.08716e+01   2.66552e+00  2.80921e+00  -8.26766e-03   7.50668e-01
Si    1.44847e+00   1.34902e+00   1.29535e+00 -1.91331e+00   1.91226e-01  -2.36099e-01
Si    3.85357e+00   3.95811e+00   1.45902e+00  1.02934e+00   1.82427e+00  -7.73265e-01
Si    1.43988e+00   4.05692e+00   4.18069e+00 -2.17345e+00  -3.15209e-01   1.23227e-01
Si    4.07858e+00   1.45650e+00   4.15696e+00 -1.39452e+00  -1.18309e+00  -7.20963e-01
Si    5.43933e+00  -6.98957e-02   1.09140e+01 -4.09261e-01   5.54849e-01  -8.00084e-01
Si    8.10420e+00   2.75845e+00   1.10033e+01 -4.62441e-01  -1.73878e+00   6.25855e-01
Si    5.35356e+00   2.85999e+00   2.83628e+00  9.27820e-01  -1.83813e+00  -5.41521e-01
Si    8.37769e+00  -9.03583e-02   2.64772e+00 -1.76092e+00   1.02791e-01   2.21297e-01
Si    6.73555e+00   1.26108e+00   1.57981e+00  2.13000e-01   1.16853e+00  -1.28805e+00
Si    9.45835e+00   3.98117e+00   1.55705e+00  1.43421e+00  -2.07016e-02  -6.13996e-01
Si    6.93625e+00   4.00490e+00   4.10201e+00 -1.25968e+00   1.71669e+00   4.88249e-01
Si    9.51779e+00   1.19375e+00   4.10081e+00  8.81212e-01   1.31266e+00   9.00340e-01
Si    1.07022e+01   5.28819e+00  -5.55753e-02 -9.94872e-01   1.44503e+00   4.60707e-01
Si    2.76622e+00   8.03383e+00  -5.81526e-02 -1.25289e+00   9.34988e-01  -5.12569e-01
Si    4.47935e-02   8.15306e+00   2.64944e+00  2.05551e+00   3.34821e-01   6.42966e-01
Si    2.60399e+00   5.40986e+00   2.79030e+00 -8.23807e-02   9.83747e-01  -1.53261e+00
Si    1.17498e+00   6.73289e+00   1.21955e+00  1.82641e+00  -5.97345e-01   7.22358e-01
Si    4.04840e+00   9.37749e+00   1.37298e+00 -4.96734e-02   9.96786e-01  -1.58082e-01
Si    1.50242e+00   9.45992e+00   4.05359e+00 -2.02226e+00   2.35722e-01  -4.68377e-01
Si    4.08862e+00   6.73966e+00   4.03591e+00 -3.02631e-02  -1.41575e-01   1.05445e-01
Si    5.34007e+00   5.45381e+00   1.87553e-01  1.35808e+00  -1.07420e+00   1.04267e+00
Si    8.29751e+00   8.27425e+00   1.07506e+01 -6.08460e-01  -1.44776e+00   3.29071e-01
Si    5.50891e+00   8.12081e+00   2.68696e+00  1.04359e-02  -6.62335e-02   7.01594e-01
Si    8.21059e+00   5.50883e+00   2.76166e+00  5.65281e-01   9.88404e-02   1.26983e+00
Si    6.94298e+00   6.83479e+00   1.38327e+00 -6.52891e-01   2.96769e-01  -1.35832e+00
Si    9.70042e+00   9.44424e+00   1.34695e+00 -1.07096e+00   9.78196e-01  -1.47628e+00
Si    6.94086e+00   9.51204e+00   3.98760e+00 -1.07873e+00   1.32269e-01   3.62746e-01
Si    9.61905e+00   7.02921e+00   4.06420e+00 -7.46983e-01  -3.22963e+00   1.43223e+00
Si    1.09782e+01   1.08287e+01   5.42541e+00 -9.69657e-01  -8.51496e-01  -6.91652e-01
Si    2.60960e+00   2.68264e+00   5.55077e+00  1.86234e+00   4.81807e-01   2.95043e-01
Si   -1.57262e-01   2.66258e+00   8.24289e+00  5.24169e-01  -1.94141e-01  -4.35507e-01
Si    2.88612e+00   6.90090e-02   7.91249e+00 -1.69472e+00  -2.28909e-01   1.20691e+00
Si    1.26041e+00   1.34954e+00   6.77712e+00  1.98887e-01   3.21994e-01   1.39008e+00
Si    3.98081e+00   4.01962e+00   7.02810e+00 -2.31450e-01  -1.60490e-02  -2.18742e+00
Si    1.23295e+00   4.16725e+00   9.44953e+00  7.08943e-02  -1.50366e+00  -1.96883e-01
Si    4.05380e+00   1.37816e+00   9.41258e+00  6.56495e-01   2.11742e-01   1.84672e+00
Si    5.44726e+00   1.08561e+01   5.35804e+00  5.11980e-01  -1.22226e-01  -4.49982e-01
Si    8.24015e+00   2.70199e+00   5.48492e+00 -7.95852e-02  -9.38616e-01  -1.92246e+00
Si    5.45374e+00   2.90400e+00   8.32478e+00  6.68809e-01  -1.95334e+00  -9.11337e-01
Si    8.01098e+00   1.12614e-01   7.80233e+00 -2.45673e-01   7.62493e-01   4.09943e+00
Si    6.67555e+00   1.54425e+00   6.62512e+00 -9.35657e-01   8.87428e-02   1.47309e+00
Si    9.48255e+00   4.04294e+00   6.76298e+00 -8.22916e-01   1.34828e+00   2.40643e+00
Si    6.81636e+00   4.17897e+00   9.70354e+00 -7.20653e-01   4.39729e-01  -1.90371e-01
Si    9.36907e+00   1.23144e+00   9.65311e+00 -1.15097e+00   1.28117e+00  -2.12775e+00
Si    1.08895e+01   5.40968e+00   5.56067e+00  3.95870e-01   1.55444e+00  -1.40534e+00
Si    2.71997e+00   8.09797e+00   5.38035e+00  1.25483e+00  -2.52715e-01   7.38986e-01
Si    1.08582e+01   8.29331e+00   7.96638e+00 -5.11732e-01  -2.88892e-01   1.39489e+00
Si    2.71056e+00   5.43656e+00   8.21754e+00  3.65502e-01   1.39042e+00   1.12642e+00
Si    1.43628e+00   6.85844e+00   6.89336e+00 -5.43384e-01  -7.83236e-01  -1.43915e+00
Si    4.13778e+00   9.44991e+00   6.71644e+00  6.55639e-01  -7.18324e-01  -4.88476e-01
Si    1.44628e+00   9.58320e+00   9.31414e+00  3.06281e-01  -3.02897e-01   1.06974e+00
Si    4.27417e+00   6.74992e+00   9.57744e+00 -2.05781e+00   1.67455e-03  -1.42442e+00
Si    5.27023e+00   5.25647e+00   5.46665e+00  7.77256e-01  -1.19315e-01  -7.92272e-01
Si    8.19778e+00   8.23291e+00   5.46277e+00 -1.47087e+00  -1.16903e+00  -2.43289e-01
Si    5.53346e+00   8.00864e+00   8.05407e+00 -1.77113e+00   2.62453e+00   1.88750e+00
Si    7.91498e+00   5.55757e+00   8.13353e+00  1.57080e+00  -1.78598e+00  -8.30010e-01
Si    6.56315e+00   6.73898e+00   6.67901e+00  2.99922e+00  -2.38309e-01  -1.74651e+00
Si    9.39895e+00   9.67499e+00   6.73529e+00  2.26867e+00  -1.21555e+00  -1.15778e+00
Si    6.83816e+00   9.53299e+00   9.38761e+00 -2.47497e-01   3.27077e-01  -3.37969e-01
Si    9.48933e+00   6.79355e+00   9.29365e+00  4.90034e-01   7.19010e-01   1.12755e+00
