64
Lattice="10.862 0 0 0 10.862 0 0 0 10.862 " PBC="1 1 1" Properties=species:S:1:pos:R:3:force:R:3 Energy="-261.28934"
Si    1.10168e+01  -6.51704e-03   1.10203e+01 -6.14739e-01  -1.04465e+00  -1.28980e+00
Si    2.74497e+00   2.99654e+00   1.03576e-02 -1.39151e+00  -1.63639e+00   1.50042e+00
Si   -2.27812e-02   2.76801e+00   2.70998e+00 -1.20476e+00   3.23367e-02  -9.66299e-01
Si    2.54056e+00   1.09552e+01   2.94056e+00 -9.82168e-02  -9.58961e-01  -2.12728e+00
Si    1.32588e+00   1.47672e+00   1.41716e+00  1.88917e+00   6.58379e-01  -1.94522e-01
Si    4.10320e+00   4.28809e+00   1.31104e+00  1.22636e+00  -5.45291e-01   2.26141e-01
Si    1.23152e+00   4.11517e+00   4.00416e+00  1.80115e+00  -2.59758e-01   1.57315e+00
Si    4.00611e+00   1.37664e+00   4.04479e+00  8.46296e-01   8.35751e-01   9.08204e-01
Si    5.32943e+00  -9.61789e-02   1.08773e+01 -5.92925e-01   2.23930e-01   1.88904e-01
Si    8.22842e+00   2.63818e+00   1.07025e+01  2.98698e-01   1.01473e+00   3.48089e-01
Si    5.36420e+00   2.83468e+00   2.70739e+00  3.21357e-01  -1.41398e+00  -1.15968e+00
Si    7.95975e+00   1.01821e-02   2.71702e+00  1.88469e+00   1.90540e+00  -2.00720e+00
Si    6.75493e+00   1.41528e+00   1.19222e+00 -9.05261e-01  -1.51767e-01   1.39653e+00
Si    9.46590e+00   4.13341e+00   1.30802e+00 -2.48211e-01  -3.76277e-01   2.14278e-01
Si    6.81274e+00   3.92715e+00   4.14498e+00  2.65917e-01   3.53954e-01  -5.62275e-01
Si    9.56639e+00   1.24054e+00   3.91256e+00 -1.24106e+00   8.25920e-01  -1.00341e-01
Si    1.07981e+01   5.58178e+00  -2.91956e-02  1.36722e+00  -7.88117e-01   1.30235e-01
Si    2.72699e+00   8.03281e+00   2.06810e-02  9.06210e-01  -2.95202e-01   1.17882e-01
Si   -8.98296e-02   8.01429e+00   2.90846e+00  4.93108e-01   1.91112e+00  -9.79343e-01
Si    2.73359e+00   5.43094e+00   2.73949e+00 -2.03659e-01   7.08960e-01   8.70983e-01
Si    1.37663e+00   6.82122e+00   1.51599e+00 -9.55072e-01  -4.23984e-01  -1.33529e+00
Si    3.82977e+00   9.47460e+00   1.50574e+00  1.67359e+00   7.29754e-01  -5.24743e-02
Si    1.31998e+00   9.46750e+00   4.25029e+00  9.36047e-01  -1.96998e+00  -5.36296e-01
Si    4.13585e+00   6.73990e+00   4.14722e+00 -1.07537e-01   1.08408e+00  -1.48066e+00
Si    5.73883e+00   5.40881e+00  -2.00096e-02 -1.32592e+00   2.25306e-02  -1.05696e+00
Si    8.21001e+00   8.21909e+00   1.08320e+01  1.31316e+00   8.82667e-02  -2.73242e-01
Si    5.51015e+00   8.24972e+00   2.77799e+00 -7.82415e-01  -1.45290e+00  -1.02446e+00
Si    8.16250e+00   5.40259e+00   2.91200e+00 -8.08808e-01  -4.67060e-01  -2.52485e+00
Si    6.95545e+00   6.85857e+00   1.25420e+00 -4.68448e-01  -3.00230e-01   3.10085e+00
Si    9.46091e+00   9.61203e+00   1.41625e+00  6.10264e-01  -1.55257e+00   8.44790e-01
Si    6.78538e+00   9.66509e+00   4.08058e+00 -2.05510e-01  -2.58442e+00   1.47830e-01
Si    9.57395e+00   6.54750e+00   4.22042e+00 -1.14025e+00   2.67632e+00   1.19742e+00
Si    1.07375e+01   1.07869e+01   5.29574e+00  1.67624e+00   1.47636e+00   1.17416e+00
Si    2.65991e+00   2.73608e+00   5.45026e+00 -7.90153e-01   5.29304e-03  -1.48784e-01
Si    7.44295e-02   2.62564e+00   8.10658e+00 -1.11413e+00   2.99504e-01   5.28241e-02
Si    2.69845e+00   1.02597e-01   8.19162e+00  6.19098e-01  -1.16538e+00   1.10450e+00
Si    1.29537e+00   1.19159e+00   6.76633e+00  1.16618e-01   1.32819e+00  -1.37262e+00
Si    3.96562e+00   4.22216e+00   6.80295e+00  4.82688e-01  -2.63113e+00   1.08083e-01
Si    1.36462e+00   4.08920e+00   9.45021e+00 -1.13905e+00   1.36647e+00   3.83210e-01
Si    3.94681e+00   1.51959e+00   9.67556e+00  1.21419e+00  -1.82749e+00  -1.35430e+00
Si    5.36664e+00   1.07624e+01   5.32688e+00 -1.73029e+00   1.65390e+00   6.09136e-01
Si    8.27429e+00   2.54187e+00   5.36002e+00 -2.23617e+00  -8.24349e-01  -4.97005e-01
Si    5.30477e+00   2.63757e+00   8.10100e+00  2.69386e-01   2.21644e+00   2.70741e-01
Si    8.07158e+00   7.33795e-02   8.20348e+00 -8.90827e-01  -6.49212e-01  -1.18615e+00
Si    6.52232e+00   1.36687e+00   6.59142e+00  2.94823e+00  -4.04664e-01   1.49838e+00
Si    9.40092e+00   3.90268e+00   6.70006e+00  2.11649e+00   4.04643e-01   1.85642e+00
Si    6.97505e+00   4.09491e+00   9.26902e+00 -2.31237e+00  -2.33938e+00   1.72528e+00
Si    9.66952e+00   1.20256e+00   9.52372e+00 -3.57514e-01   8.89368e-01  -1.96416e-01
Si    1.08952e+01   5.31348e+00   5.61315e+00 -9.02856e-02  -4.99463e-01  -1.01680e+00
Si    2.92678e+00   8.11566e+00   5.60855e+00 -1.82675e+00   3.51907e-01  -7.99654e-01
Si    1.09358e+01   8.20798e+00   8.02190e+00  4.27694e-01   1.02910e+00  -2.81861e-01
Si    2.75788e+00   5.49797e+00   8.22879e+00 -2.11921e-01  -9.58857e-02   1.24670e-01
Si    1.42708e+00   6.70354e+00   6.80903e+00  1.91529e-01   1.30375e+00   3.11918e-01
Si    4.17617e+00   9.58404e+00   6.93769e+00 -8.03750e-02  -9.23188e-01   2.30247e-01
Si    1.46357e+00   9.41115e+00   9.55077e+00 -8.43080e-01   1.25836e+00  -4.41866e-01
Si    4.28415e+00   6.74497e+00   9.47229e+00 -1.66160e+00  -9.29459e-01   2.34159e+00
Si    5.34364e+00   5.26810e+00   5.32727e+00  9.83857e-01   5.00898e-01   6.54670e-01
Si    8.08981e+00   8.28418e+00   5.41584e+00  1.32858e+00  -1.29396e+00  -7.32669e-01
Si    5.51006e+00   7.98028e+00   8.16629e+00  9.47809e-02   1.68138e+00  -2.09902e+00
Si    8.14502e+00   5.38927e+00   7.96765e+00  1.16645e+00   2.97638e+00  -1.06686e+00
Si    6.65708e+00   6.78066e+00   6.50077e+00  1.23332e+00  -7.34628e-01   1.95388e+00
Si    9.50131e+00   9.67759e+00   6.71548e+00 -1.42329e+00  -1.91964e+00   1.83759e+00
Si    6.73997e+00   9.32607e+00   9.51603e+00  3.37352e-01   2.54589e+00  -1.52896e-01
Si    9.60948e+00   6.97869e+00   9.37179e+00 -2.03763e+00  -1.89994e+00   1.48387e-02
