64
Lattice="10.862 0 0 0 10.862 0 0 0 10.862 " PBC="1 1 1" Properties=species:S:1:pos:R:3:force:R:3 Energy="-262.78469"
Si    1.09295e+01  -7.46718e-02   1.07619e+01  2.04575e-01  -3.96667e-01   1.61328e+00
Si    2.67825e+00   2.64657e+00   2.16157e-02 -4.30284e-03  -5.15216e-02   2.05153e+00
Si   -1.07723e-01   2.74347e+00   2.76933e+00  8.71120e-01  -1.40972e+00  -2.79574e-01
Si    2.95604e+00   1.08134e+01   2.70326e+00 -2.28805e+00   7.14073e-01   9.21334e-01
Si    1.36048e+00   1.23765e+00   1.50156e+00 -2.02378e-01   7.56211e-01  -1.07230e+00
Si    3.96343e+00   4.13370e+00   1.44081e+00  1.38230e+00  -1.52920e+00   3.83872e-01
Si    1.28870e+00   4.09904e+00   4.03760e+00  9.24306e-01  -7.06756e-01   1.11560e+00
Si    4.18248e+00   1.27465e+00   4.10650e+00  3.55286e-02   1.14878e+00  -1.11345e+00
Si    5.59527e+00   1.90574e-02   1.07340e+01 -7.65020e-01   1.51466e-01   1.46908e+00
Si    8.13974e+00   2.68138e+00   1.09787e+01 -1.74607e-01   5.20679e-01  -1.55982e+00
Si    5.57677e+00   2.73841e+00   2.86919e+00 -1.76197e+00   5.59307e-01  -1.08343e+00
Si    8.12610e+00   4.09257e-02   2.77648e+00 -7.72893e-01  -3.00958e+00  -1.48309e+00
Si    6.80203e+00   1.36544e+00   1.41976e+00 -1.55716e-01  -2.32552e-01  -9.30534e-02
Si    9.44360e+00   4.04276e+00   1.43020e+00 -5.65704e-01   1.07769e+00  -3.28736e-04
Si    6.84533e+00   4.17430e+00   4.21434e+00 -3.80503e-01  -1.44933e+00   1.15526e+00
Si    9.41974e+00   1.28457e+00   4.05628e+00  1.55014e+00   1.98616e+00   2.62134e+00
Si    1.08941e+01   5.32806e+00   7.23348e-02  4.84947e-01   4.14516e-01   1.76358e-01
Si    2.66948e+00   8.24322e+00   4.04086e-02  1.19309e+00   7.78037e-01   5.94581e-01
Si   -4.37863e-02   8.04733e+00   2.59245e+00  7.79787e-01   1.09443e+00  -1.69378e-02
Si    2.78130e+00   5.49306e+00   2.89433e+00 -9.67133e-01  -2.52207e-01  -1.18734e+00
Si    1.49227e+00   6.75794e+00   1.35835e+00 -1.14023e+00  -4.90749e-01   2.84780e-01
Si    4.22777e+00   9.63729e+00   1.35492e+00  6.05346e-01  -2.54009e+00  -1.35557e+00
Si    1.42331e+00   9.46541e+00   3.96008e+00 -2.60616e-01  -6.08804e-01  -8.26671e-01
Si    4.09582e+00   6.84958e+00   4.17569e+00  2.25933e-01  -4.47175e-01   1.00014e-01
Si    5.24043e+00   5.50274e+00   2.28928e-02  2.37945e-01   7.27546e-01   3.71491e-01
Si    8.15318e+00   8.04531e+00   1.07005e+01 -4.45714e-01   4.79210e-01  -1.32252e-01
Si    5.47078e+00   8.08363e+00   2.74274e+00 -1.07183e+00   9.04739e-01  -5.77378e-01
Si    7.93970e+00   5.43950e+00   2.72298e+00  2.49318e+00   4.83924e-03  -6.44171e-01
Si    6.75502e+00   6.83513e+00   1.33701e+00 -4.71743e-01  -7.19677e-01  -1.15034e+00
Si    9.41573e+00   9.42403e+00   1.20060e+00  6.70553e-01   1.03621e+00   1.17117e+00
Si    6.80645e+00   9.30334e+00   4.10490e+00  6.79076e-01   2.33819e+00  -2.61091e-01
Si    9.55224e+00   6.66833e+00   3.94885e+00 -1.87403e+00   1.43197e+00   6.57095e-03
Si    1.10619e+01   1.08612e+01   5.32759e+00 -1.29380e+00   1.27633e+00   1.73648e-01
Si    2.81735e+00   2.64023e+00   5.34049e+00 -1.34671e+00   1.57735e+00  -2.86670e-01
Si   -1.48913e-01   2.86168e+00   8.20680e+00  1.54353e+00  -8.56685e-01  -6.73783e-01
Si    2.64193e+00   3.88048e-02   8.09674e+00  7.15236e-01   3.89445e-01   1.18177e-01
Si    1.36022e+00   1.55834e+00   6.74925e+00 -7.62222e-01  -1.20353e+00   6.10685e-01
Si    4.04003e+00   4.00943e+00   6.75073e+00  2.49679e-01   8.65943e-02   2.97088e-01
Si    1.36207e+00   3.95861e+00   9.57262e+00 -5.19987e-02   1.65823e+00  -1.12157e+00
Si    4.01508e+00   1.29138e+00   9.62227e+00  2.60907e-01  -2.80637e-01  -1.90284e+00
Si    5.43241e+00   1.08036e+01   5.35271e+00  1.23359e+00  -8.38864e-01   1.78926e+00
Si    8.24046e+00   2.82582e+00   5.72569e+00 -9.49933e-01  -1.04943e+00  -2.70254e+00
Si    5.33106e+00   2.54677e+00   8.08883e+00 -2.67424e-01   2.25597e+00   2.15675e+00
Si    8.08055e+00   1.45040e-01   8.06612e+00  3.41661e+00  -1.30835e+00   1.11889e+00
Si    6.75548e+00   1.36430e+00   6.83544e+00 -6.01253e-01   1.25119e-01  -2.28510e+00
Si    9.42837e+00   4.32760e+00   6.94791e+00  7.11193e-01  -8.98125e-01  -3.27517e-01
Si    6.60894e+00   4.11629e+00   9.62900e+00  9.15601e-01  -1.45723e+00  -1.19961e+00
Si    9.62038e+00   1.35863e+00   9.58333e+00 -2.50582e+00   4.58150e-01  -9.03691e-01
Si    1.07455e+01   5.43255e+00   5.35871e+00  8.90390e-01  -9.47775e-01   8.84336e-01
Si    2.51721e+00   8.01874e+00   5.40740e+00  1.82881e+00   1.45675e+00   4.57425e-01
Si    1.09404e+01   8.21536e+00   8.06731e+00 -9.61868e-01  -1.67443e+00   1.22201e-01
Si    2.63212e+00   5.40953e+00   8.01652e+00  8.04984e-01  -3.49610e-01   2.53341e+00
Si    1.24349e+00   6.66909e+00   6.74662e+00 -4.08352e-01   9.35325e-01  -3.15622e-01
Si    4.00016e+00   9.49813e+00   6.74293e+00 -6.93034e-01  -3.07026e-02  -1.21651e+00
Si    1.40479e+00   9.43841e+00   9.39891e+00 -4.28286e-02   1.17372e+00   6.97569e-01
Si    3.96260e+00   6.99030e+00   9.51106e+00  1.12216e+00  -1.45226e+00  -2.28763e+00
Si    5.40702e+00   5.45310e+00   5.52868e+00 -6.23860e-02  -1.50612e-01  -5.69540e-01
Si    8.28478e+00   8.12091e+00   5.41657e+00  4.68719e-01  -6.39515e-01   2.60405e-01
Si    5.54445e+00   8.21861e+00   7.89110e+00 -1.95934e+00   1.21844e-02   2.84106e+00
Si    8.04881e+00   5.53064e+00   8.26480e+00 -5.77286e-01  -3.04454e-01   8.10852e-01
Si    6.81901e+00   6.77943e+00   6.75824e+00  1.06800e+00   2.18892e-01  -5.37964e-01
Si    9.66429e+00   9.62775e+00   6.73556e+00 -1.53204e+00  -1.36286e-01   7.30540e-03
Si    6.84729e+00   9.55969e+00   9.32398e+00  2.31471e-01  -1.24751e+00   3.70659e-01
Si    9.66429e+00   6.70457e+00   9.47613e+00 -4.79979e-01   9.21917e-01  -1.18588e-01
