64
Lattice="10.862 0 0 0 10.862 0 0 0 10.862 " PBC="1 1 1" Properties=species:S:1:pos:R:3:force:R:3 Energy="-262.1695"
Si    1.08983e+01  -3.23738e-02   1.08519e+01  5.87993e-01   7.42741e-01   7.12092e-01
Si    2.72454e+00   2.73835e+00   3.08251e-01  4.33504e-01  -4.04331e-01  -1.33165e+00
Si   -8.31360e-02   2.71951e+00   2.63383e+00 -7.95271e-01   5.27791e-01   1.50763e+00
Si    2.76749e+00   1.09544e+01   2.71901e+00 -1.78747e+00  -3.18545e+00  -2.42558e+00
Si    1.27478e+00   1.38191e+00   1.48961e+00  6.73974e-01  -1.15443e+00  -1.39907e+00
Si    4.03424e+00   4.20363e+00   1.56612e+00  4.40771e-01  -1.05755e-01  -3.96684e-01
Si    1.25315e+00   3.96005e+00   4.07930e+00  1.11351e+00   1.74039e+00  -9.73494e-01
Si    4.06645e+00   1.24579e+00   3.90812e+00  2.78852e+00   1.82265e+00   4.05582e+00
Si    5.38664e+00   6.93252e-02   1.08382e+01  2.33458e+00  -1.20165e+00  -1.99225e-01
Si    8.16161e+00   2.79354e+00   1.07594e+01 -1.41898e+00   2.49910e-01  -6.32974e-01
Si    5.51912e+00   2.77158e+00   2.73762e+00 -1.12751e+00  -9.56132e-01  -7.97413e-01
Si    8.10638e+00  -5.93084e-02   2.53399e+00  5.45831e-01   1.44868e+00   1.47177e+00
Si    6.79639e+00   1.45074e+00   1.20034e+00 -1.45000e-01  -3.33658e-01   1.13983e+00
Si    9.39668e+00   4.02272e+00   1.34060e+00  1.49953e+00   1.16622e+00  -4.81485e-01
Si    6.81277e+00   4.05223e+00   4.08444e+00  1.24455e+00  -8.05783e-01   5.68532e-01
Si    9.35504e+00   1.52991e+00   4.07157e+00  1.60024e+00  -3.92386e+00  -1.72870e+00
Si    1.08802e+01   5.42675e+00   2.84173e-02  5.36687e-01  -2.28591e-01   1.07141e+00
Si    2.91542e+00   8.12829e+00  -4.73851e-02  1.03905e+00   1.49401e+00  -1.51144e+00
Si    7.23498e-02   8.11486e+00   2.68858e+00 -1.65905e-01  -1.09718e+00  -1.31441e+00
Si    2.70545e+00   5.69647e+00   2.85564e+00  1.34076e-01  -2.26430e+00   6.86948e-01
Si    1.63089e+00   6.89483e+00   1.17469e+00 -3.46226e+00  -1.42273e+00   2.31710e+00
Si    4.20436e+00   9.49272e+00   1.32271e+00 -1.21740e+00   6.97651e-01   1.07157e+00
Si    1.26844e+00   9.56248e+00   3.94018e+00  1.94956e+00  -3.29135e-01   2.00576e+00
Si    4.39671e+00   6.70531e+00   4.21465e+00 -2.58741e+00   1.65240e+00  -8.02556e-02
Si    5.32297e+00   5.38413e+00  -6.82881e-02 -2.46691e-01   1.53203e+00   1.05565e+00
Si    8.23947e+00   8.25275e+00   1.06884e+01 -9.17085e-01  -4.11254e-02   7.98834e-01
Si    5.51321e+00   8.14261e+00   2.70911e+00  8.30273e-01   9.11342e-02   3.91157e-01
Si    8.14618e+00   5.37088e+00   2.70406e+00 -1.53620e+00   1.41803e+00  -1.18445e+00
Si    6.72368e+00   6.87445e+00   1.13769e+00  1.52189e+00  -9.69776e-01   1.18241e+00
Si    9.61788e+00   9.48315e+00   1.31805e+00 -9.43231e-01  -4.10497e-01  -1.56839e-01
Si    6.93031e+00   9.46685e+00   4.13726e+00 -8.20103e-01  -2.97588e-01  -1.23179e+00
Si    9.49964e+00   6.70275e+00   4.01879e+00  9.04334e-01   1.52555e-01  -4.58465e-01
Si    1.07961e+01   1.08297e+01   5.39990e+00 -4.71100e-01   1.09627e+00  -1.60685e+00
Si    2.70536e+00   2.67160e+00   5.37013e+00  4.57131e-01  -4.73809e-01   7.31541e-01
Si    2.35407e-02   2.65499e+00   8.22544e+00  9.93642e-01  -1.06224e-01  -8.07555e-03
Si    2.51498e+00   5.11580e-02   8.25064e+00  2.69883e+00  -1.65304e-01  -5.21513e-01
Si    1.30289e+00   1.25448e+00   6.74319e+00 -2.03860e-01   1.60687e+00   1.08126e-01
Si    3.96490e+00   4.15756e+00   6.90169e+00 -8.22091e-01  -4.26480e-01  -9.74303e-01
Si    1.40922e+00   3.97752e+00   9.68175e+00 -9.64217e-01   2.71257e-02  -3.09492e-01
Si    4.06167e+00   1.35011e+00   9.65526e+00 -2.50450e+00   1.50920e+00  -1.15642e+00
Si    5.37143e+00   1.05526e+01   5.54305e+00 -4.65036e-01   2.34455e+00  -1.90588e+00
Si    8.05405e+00   2.55653e+00   5.47740e+00 -1.01496e+00   2.47775e+00   9.65482e-01
Si    5.25922e+00   2.79094e+00   8.21136e+00  1.14405e+00  -9.88308e-01  -1.05790e-01
Si    8.31201e+00   1.52941e-01   7.96943e+00 -1.44160e+00  -3.20857e-01   4.69509e-01
Si    6.58375e+00   1.30468e+00   6.75757e+00  1.48951e-01   1.44921e-01   1.05829e+00
Si    9.45780e+00   3.89208e+00   6.90457e+00 -1.02050e-01   7.15865e-01  -1.44800e+00
Si    6.67703e+00   4.24554e+00   9.43925e+00  1.23673e+00  -2.50320e+00  -2.21517e-02
Si    9.54029e+00   1.36751e+00   9.57434e+00  2.61965e-02  -3.00121e-01  -7.86211e-01
Si    1.07495e+01   5.30164e+00   5.39153e+00 -7.07995e-02  -3.88143e-01   1.05449e+00
Si    2.67471e+00   8.12502e+00   5.50776e+00 -8.92134e-01  -1.63510e+00  -3.17425e+00
Si    1.09625e+01   8.04940e+00   8.23136e+00 -9.54720e-01   1.47311e+00  -1.38872e+00
Si    2.53029e+00   5.49190e+00   8.34222e+00  1.04475e+00  -5.92282e-01  -1.94396e+00
Si    1.26926e+00   6.68247e+00   6.73532e+00  1.84287e-01   9.26391e-02   4.64313e-01
Si    3.81531e+00   9.43213e+00   6.80364e+00  1.20083e+00   1.76199e+00   2.50952e+00
Si    1.43851e+00   9.47860e+00   9.58298e+00 -8.98688e-01  -9.42183e-01   1.57973e-01
Si    4.16242e+00   6.79549e+00   9.32983e+00 -4.11253e-01   3.56162e-01   1.52457e+00
Si    5.60108e+00   5.26943e+00   5.54845e+00 -6.10014e-01   1.66353e+00   1.41748e+00
Si    8.27219e+00   8.06392e+00   5.38364e+00 -8.35667e-01   5.02849e-01   3.48898e-02
Si    5.43895e+00   8.36423e+00   8.15739e+00 -6.06446e-01  -8.17159e-01  -1.22587e+00
Si    8.20118e+00   5.41192e+00   8.14673e+00 -6.86994e-01   1.61521e+00  -2.73773e-01
Si    6.80440e+00   7.01413e+00   6.82583e+00  5.46051e-01  -2.62356e+00   3.16403e-02
Si    9.50295e+00   9.47082e+00   6.67681e+00  1.50385e+00  -8.18697e-01   2.02143e+00
Si    6.87445e+00   9.69626e+00   9.33069e+00  1.82076e-01   4.55134e-01   1.41930e+00
Si    9.57741e+00   6.76052e+00   9.54642e+00 -4.19628e-01  -3.45970e-01  -8.49876e-01
