64
Lattice="10.862 0 0 0 10.862 0 0 0 10.862 " PBC="1 1 1" Properties=species:S:1:pos:R:3:force:R:3 Energy="-261.80839"
Si    1.06837e+01  -1.18905e-01   1.09531e+01 -1.26705e-01   1.65110e+00  -1.73922e+00
Si    2.89044e+00   2.60393e+00  -6.77549e-02 -1.11135e+00  -6.00864e-01  -1.31113e+00
Si    9.51536e-02   2.58480e+00   2.80694e+00 -2.37012e-01   9.66831e-01  -1.09922e+00
Si    2.59209e+00   1.09437e+01   2.79548e+00  4.50538e-01   9.46811e-01  -9.21590e-01
Si    1.23320e+00   1.36101e+00   1.08918e+00  1.47844e+00  -1.86225e-01   2.79361e+00
Si    3.91920e+00   4.07226e+00   1.33680e+00  1.39543e+00  -7.85095e-01   1.12819e+00
Si    1.49947e+00   4.06108e+00   4.06738e+00 -1.30779e+00   1.67058e-02  -4.48687e-01
Si    4.22108e+00   1.41878e+00   4.09948e+00 -1.07574e+00  -1.67307e+00   1.68635e-01
Si    5.64213e+00  -4.87016e-02   1.09271e+01 -2.53752e+00  -5.61485e-01  -5.03124e-01
Si    8.28488e+00   2.81170e+00   1.08841e+01 -1.07374e+00  -1.67791e+00  -1.46619e+00
Si    5.47684e+00   2.60420e+00   2.61446e+00 -3.87664e-01   1.15068e+00  -1.30123e+00
Si    8.12065e+00   3.14341e-02   2.90332e+00 -1.59102e+00  -1.21615e+00  -1.09047e+00
Si    6.94594e+00   1.27663e+00   1.27491e+00  5.41457e-01   1.53645e+00   1.46660e+00
Si    9.54979e+00   4.01667e+00   1.45796e+00  7.43709e-01   4.86410e-01   5.11626e-01
Si    6.74833e+00   4.07191e+00   3.86294e+00  1.21123e-01   2.82453e-01   2.16679e+00
Si    9.47800e+00   1.31219e+00   4.07772e+00  7.70820e-01   1.45996e+00   2.19449e+00
Si    1.10181e+01   5.13392e+00  -4.08193e-02 -7.71706e-01   2.17162e+00   2.69896e+00
Si    2.73052e+00   8.14369e+00  -7.82380e-02 -1.74160e+00   1.33499e+00   1.28734e+00
Si   -1.68651e-01   8.35774e+00   2.70620e+00  2.25735e+00  -1.22144e+00  -3.33481e-01
Si    2.67854e+00   5.54363e+00   2.75181e+00 -5.49295e-01   2.04710e-01  -1.35869e+00
Si    1.19450e+00   6.93466e+00   1.35459e+00  9.54385e-01  -1.31537e+00  -5.10003e-01
Si    3.99440e+00   9.61905e+00   1.42483e+00  6.05771e-01  -6.72374e-01  -9.23180e-01
Si    1.26479e+00   9.50441e+00   4.07416e+00  2.17898e-01   1.02388e+00   3.11990e-01
Si    3.99854e+00   6.94328e+00   4.03435e+00  9.30897e-01  -2.24683e+00   1.53053e+00
Si    5.17684e+00   5.21397e+00  -2.11786e-01  1.35478e-02   1.13862e+00   7.59044e-01
Si    8.16577e+00   8.09296e+00   1.10592e+01 -1.96264e+00  -8.15860e-01  -5.71563e-01
Si    5.32239e+00   8.12230e+00   2.69817e+00  4.92339e-01   9.96578e-01  -7.02497e-01
Si    8.01858e+00   5.50741e+00   2.59446e+00  7.41606e-01  -2.60301e-02  -6.55236e-01
Si    6.38958e+00   6.62558e+00   1.22215e+00  2.20371e+00   1.08606e+00   2.12697e-01
Si    9.34846e+00   9.56753e+00   1.51429e+00 -6.51867e-01   4.80882e-01  -8.63903e-01
Si    6.80207e+00   9.30476e+00   4.14588e+00 -6.41851e-01   1.81070e+00   5.05502e-01
Si    9.47273e+00   6.94527e+00   3.86471e+00 -9.78827e-01  -2.25837e+00   2.18614e+00
Si    1.08946e+01   1.08950e+01   5.49734e+00  3.20619e-01   4.29362e-01  -2.43887e-01
Si    2.83686e+00   2.77290e+00   5.37869e+00  1.73285e+00   1.04577e+00  -5.66489e-01
Si    9.08056e-02   2.83047e+00   8.08246e+00  1.58512e-01  -3.16040e-01  -1.28049e+00
Si    2.66003e+00  -1.00564e-01   8.22512e+00 -6.48555e-01   2.00374e+00  -1.31022e+00
Si    1.55601e+00   1.53623e+00   6.64243e+00 -2.10386e+00  -2.52587e+00   2.69865e+00
Si    4.16230e+00   4.13812e+00   6.74231e+00  8.20301e-01  -1.14462e+00  -4.54100e-01
Si    1.50412e+00   4.01311e+00   9.44861e+00  1.13721e+00  -8.75730e-01  -6.88837e-01
Si    4.25275e+00   1.14021e+00   9.39243e+00  2.43270e-01   1.61588e+00   7.65202e-01
Si    5.47737e+00   1.08583e+01   5.59333e+00  7.63905e-01  -1.28026e-01  -1.55497e+00
Si    8.09985e+00   2.82473e+00   5.43710e+00  1.49331e+00   2.19751e-01  -8.08478e-01
Si    5.58949e+00   2.68021e+00   8.01813e+00 -1.71011e+00  -5.68185e-01   5.07919e-01
Si    8.25766e+00  -5.76573e-02   8.22357e+00  2.86986e-02  -1.61153e-01  -7.15491e-01
Si    7.01400e+00   1.34268e+00   6.83509e+00 -9.80238e-01  -6.09112e-01  -5.17885e-01
Si    9.51623e+00   4.28979e+00   6.81209e+00 -5.48513e-01  -8.28466e-01   6.89846e-02
Si    6.71870e+00   4.00203e+00   9.47096e+00  1.33374e+00  -3.13962e-02   8.66743e-01
Si    9.61212e+00   1.42234e+00   9.35864e+00 -3.80404e-01  -1.86666e-01   2.26994e+00
Si    1.08809e+01   5.45238e+00   5.25203e+00 -5.00304e-01   1.11856e+00   2.80302e-01
Si    2.67451e+00   8.21115e+00   5.37377e+00 -5.26258e-01   3.18813e-01   6.63005e-01
Si    1.07693e+01   8.07170e+00   8.38481e+00  5.65562e-01  -1.17100e+00  -1.69410e+00
Si    2.71742e+00   5.37203e+00   7.96876e+00 -1.19693e+00   1.05505e+00   4.88124e-01
Si    1.29951e+00   6.85677e+00   6.70516e+00 -2.82341e-01  -5.06025e-01   8.63803e-01
Si    3.95052e+00   9.57076e+00   6.78484e+00  4.68121e-01  -6.77206e-01  -2.13226e-01
Si    1.16056e+00   9.55092e+00   9.52857e+00  1.75421e+00  -1.12052e+00   1.05607e+00
Si    3.89312e+00   6.72453e+00   9.41587e+00  1.28859e+00   3.74669e-01  -6.93451e-01
Si    5.54433e+00   5.49615e+00   5.44935e+00 -5.74883e-01   8.18509e-01  -1.10807e+00
Si    8.23123e+00   8.08979e+00   5.55200e+00  2.28330e-01   6.06820e-02  -4.51832e-01
Si    5.27552e+00   8.26256e+00   8.16574e+00  1.06066e+00  -1.33195e+00   4.51493e-01
Si    8.11227e+00   5.52574e+00   8.41383e+00  7.85900e-01  -1.00903e+00  -1.24334e+00
Si    6.86748e+00   6.83901e+00   6.98640e+00 -1.36218e+00   3.27648e-01  -7.42612e-01
Si    9.64616e+00   9.44891e+00   6.86454e+00 -1.03449e+00   2.18173e-01   2.65575e-01
Si    6.82932e+00   9.47288e+00   9.54846e+00  7.60992e-01  -1.07507e+00  -5.84403e-02
Si    9.56386e+00   6.62302e+00   9.84095e+00 -2.68402e-01   1.17111e+00  -1.02264e+00
