64
Lattice="10.862 0 0 0 10.862 0 0 0 10.862 " PBC="1 1 1" Properties=species:S:1:pos:R:3:force:R:3 Energy="-261.66072"
Si    1.10306e+01  -1.27185e-01   1.07003e+01 -1.06218e+00   5.14280e-01   7.98330e-01
Si    2.74205e+00   2.65145e+00  -1.79503e-01 -5.25319e-02   4.68394e-01   4.50807e-01
Si    5.98697e-02   2.74446e+00   2.81978e+00  5.85594e-01   8.23359e-01   1.26348e-01
Si    2.69824e+00   1.10380e+01   2.72702e+00  3.86551e-01  -2.40884e+00  -1.76502e+00
Si    1.36192e+00   1.39359e+00   1.20679e+00 -2.42980e-01   5.72673e-02   8.96211e-01
Si    3.94045e+00   3.83698e+00   1.44834e+00  8.04092e-01   6.35361e-02   1.51077e-01
Si    1.56140e+00   4.33980e+00   4.36129e+00 -1.48376e+00  -2.99749e+00  -3.08460e+00
Si    4.01769e+00   1.34323e+00   4.13817e+00  1.00505e-01  -8.98219e-02   9.94358e-01
Si    5.38394e+00  -1.35643e-01   1.09120e+01  1.25958e+00  -8.11899e-01  -9.05986e-01
Si    8.23356e+00   2.65783e+00   1.09394e+01 -1.26199e+00  -6.76347e-01   1.36236e-01
Si    5.44939e+00   2.42996e+00   2.82146e+00 -4.67098e-01   2.62179e+00  -9.80860e-01
Si    8.20360e+00   8.09767e-02   2.70432e+00 -4.11804e-01   1.87494e-02   7.14007e-01
Si    6.71247e+00   1.19771e+00   1.34228e+00  1.46133e+00   1.24602e+00  -1.54360e-01
Si    9.37507e+00   4.09962e+00   1.46645e+00  1.49289e+00  -1.35483e+00   1.01104e+00
Si    6.63880e+00   4.05553e+00   4.12117e+00  1.90507e+00  -8.92946e-01   5.95680e-02
Si    9.61472e+00   1.24360e+00   4.17520e+00  6.39354e-01   8.81850e-01  -7.10511e-01
Si    1.07456e+01   5.28015e+00   6.57092e-02 -1.53058e+00   2.80042e+00  -4.30378e-01
Si    2.61729e+00   8.10418e+00  -7.79001e-02  3.42336e-01  -8.19149e-01  -1.94863e-01
Si   -3.30337e-02   8.21060e+00   2.76988e+00  1.21708e-01  -6.04781e-01  -1.00059e+00
Si    2.52901e+00   5.37664e+00   2.57650e+00  1.56371e+00   7.51752e-01   3.79731e-01
Si    1.16362e+00   6.75358e+00   1.27733e+00  5.29139e-01   8.23210e-01   4.51064e-01
Si    4.04795e+00   9.38001e+00   1.30776e+00 -2.10291e+00   1.72077e+00   4.18309e-01
Si    1.50401e+00   9.43542e+00   3.96137e+00 -1.47035e+00   1.99001e+00   8.49800e-01
Si    4.02869e+00   6.76020e+00   3.87761e+00 -9.88100e-01  -1.02879e-01  -1.06833e-01
Si    5.33655e+00   5.30876e+00   2.27338e-01 -2.85734e-01  -3.05599e-01  -2.56000e+00
Si    8.19079e+00   8.08732e+00   1.08963e+01 -4.57923e-01   7.11789e-01   2.49110e+00
Si    5.40738e+00   8.13584e+00   2.58705e+00  1.35858e+00  -4.42772e-01   1.18562e+00
Si    8.18233e+00   5.46403e+00   2.89364e+00 -1.04373e+00  -7.59949e-01  -2.51111e-02
Si    6.78668e+00   6.58731e+00   1.40183e+00  8.10444e-01   2.35518e+00   3.23150e-01
Si    9.54530e+00   9.67649e+00   1.41004e+00  3.75395e-01  -2.25141e+00  -1.56507e+00
Si    6.74888e+00   9.65488e+00   3.98355e+00  8.45310e-01  -2.44665e+00  -4.41962e-01
Si    9.63329e+00   6.77020e+00   4.18095e+00 -4.07951e-01   5.13321e-03   4.16151e-01
Si    1.09785e+01   1.07772e+01   5.55270e+00 -5.70382e-02  -4.76902e-01  -6.45217e-01
Si    2.71388e+00   2.77662e+00   5.46161e+00  7.96541e-01  -1.09303e+00   1.06061e+00
Si   -2.11265e-01   2.73813e+00   8.19773e+00  2.83476e+00   7.59013e-01  -1.44296e-03
Si    2.80888e+00   1.17045e-01   8.16489e+00  6.29521e-01  -1.74417e+00  -9.28183e-01
Si    1.38605e+00   1.42158e+00   6.86580e+00 -8.60190e-01   5.98715e-01   7.58715e-02
Si    4.06734e+00   4.05565e+00   6.84141e+00 -1.06649e-01   5.14611e-02   1.09046e+00
Si    1.25107e+00   4.19153e+00   9.58639e+00  1.04173e+00  -2.22299e+00  -2.25287e+00
Si    4.33525e+00   1.32285e+00   9.50614e+00 -1.47273e+00   6.18681e-01  -4.24169e-01
Si    5.53713e+00   1.09316e+01   5.38795e+00 -1.43513e+00   2.51319e-01  -4.87220e-01
Si    8.39280e+00   2.74927e+00   5.43623e+00 -1.57058e+00   1.75466e+00   4.39564e-02
Si    5.66057e+00   2.80043e+00   8.24048e+00 -1.39979e+00  -2.21215e-01  -1.36355e+00
Si    8.04828e+00   1.28564e-01   8.26200e+00 -1.06221e+00  -7.44626e-01  -9.62309e-01
Si    6.79158e+00   1.51539e+00   6.58771e+00  1.46751e+00  -2.52524e-01   2.64806e+00
Si    9.53408e+00   4.33215e+00   6.94277e+00 -9.65332e-01  -2.79350e+00  -8.12285e-01
Si    6.92161e+00   4.12259e+00   9.63125e+00 -4.75951e-01   6.31891e-01   2.98008e-01
Si    9.55442e+00   1.28902e+00   9.54024e+00 -5.36489e-01   1.44078e-01   7.48842e-01
Si    1.09807e+01   5.36088e+00   5.60700e+00 -1.33611e+00   3.07104e+00  -9.08747e-01
Si    2.77150e+00   8.15941e+00   5.29094e+00  1.74120e+00   3.80717e-01  -9.01548e-02
Si    1.08232e+01   8.12359e+00   7.95657e+00 -1.72824e+00   7.85295e-01   6.78754e-01
Si    2.61648e+00   5.51672e+00   8.09927e+00 -1.98842e-01   4.61289e-02  -5.53264e-01
Si    1.33594e+00   7.00420e+00   6.56861e+00  7.68659e-01  -2.19612e+00   1.93445e+00
Si    4.20271e+00   9.54803e+00   6.64345e+00 -9.16510e-01  -2.01886e-01   1.73130e+00
Si    1.36736e+00   9.34267e+00   9.23551e+00  1.19508e+00   1.60019e+00   1.05353e+00
Si    4.08448e+00   6.76511e+00   9.42927e+00  3.47826e-01  -2.58287e-01   1.38640e+00
Si    5.19198e+00   5.40700e+00   5.35193e+00  7.55896e-01  -2.70754e-01  -1.55468e-01
Si    8.07034e+00   8.10410e+00   5.37898e+00 -2.55773e-01   1.07774e+00  -7.70464e-02
Si    5.54390e+00   8.14300e+00   8.12363e+00 -1.90379e+00  -4.40935e-01  -9.13809e-01
Si    8.03847e+00   5.58314e+00   8.08554e+00  5.61169e-03   2.62986e-01   1.62374e+00
Si    6.59720e+00   6.71249e+00   6.62098e+00  1.16999e+00   8.76648e-01   4.87932e-01
Si    9.29861e+00   9.60030e+00   6.85147e+00  1.12167e+00  -8.85052e-01  -9.05591e-01
Si    6.82618e+00   9.32376e+00   9.57527e+00 -1.37652e-01   2.47735e+00  -1.51521e-01
Si    9.46968e+00   6.91957e+00   9.52345e+00  1.23102e+00  -2.47405e+00  -1.15583e+00
