64
Lattice="10.862 0 0 0 10.862 0 0 0 10.862 " PBC="1 1 1" Properties=species:S:1:pos:R:3:force:R:3 Energy="-262.70578"
Si    1.10260e+01  -1.46346e-01   1.08249e+01 -7.54178e-01   2.43915e-01   8.74780e-01
Si    2.82772e+00   2.90927e+00   8.74272e-04 -2.10776e+00  -1.31401e+00   1.03992e+00
Si   -1.63505e-02   2.70080e+00   2.73573e+00  8.16879e-01   4.17579e-01  -1.08219e+00
Si    2.59221e+00   1.08390e+01   2.74067e+00  1.55731e+00   2.03282e+00  -1.63449e+00
Si    1.31942e+00   1.43328e+00   1.30740e+00  1.17131e+00  -1.64335e-01  -1.69695e-01
Si    4.10968e+00   4.09254e+00   1.46637e+00  8.46186e-01   4.19003e-01  -6.61228e-02
Si    1.38760e+00   3.99720e+00   4.00221e+00 -2.70286e-01   1.18119e+00   8.87598e-01
Si    4.16717e+00   1.26330e+00   4.01743e+00 -1.17229e+00   2.76233e-01   5.17041e-01
Si    5.38743e+00  -4.15865e-02   1.08218e+01 -2.52016e-01  -2.35759e-01   1.23559e+00
Si    8.28309e+00   2.81122e+00   1.08417e+01 -9.75668e-01  -1.49669e+00   1.10465e-01
Si    5.52642e+00   2.67400e+00   2.81656e+00  4.98362e-02  -3.55656e-01  -2.02575e+00
Si    8.16802e+00   2.14963e-02   2.74512e+00  1.52477e+00   2.67790e-01  -1.52974e+00
Si    6.93216e+00   1.29593e+00   1.27189e+00 -1.51737e+00   1.13732e+00   3.20936e-01
Si    9.46072e+00   4.05312e+00   1.51454e+00  6.69808e-02   1.79414e+00  -7.96546e-01
Si    6.75643e+00   4.01984e+00   4.20635e+00  7.14442e-01  -1.86536e-01   5.85867e-01
Si    9.56797e+00   1.37534e+00   3.95658e+00 -2.47325e+00   6.86153e-01   1.57820e+00
Si    1.07396e+01   5.45736e+00  -6.40675e-02 -5.96765e-03  -8.10928e-02   1.54130e+00
Si    2.70405e+00   7.90939e+00  -2.04250e-01  5.01142e-02   1.26167e+00   2.23123e+00
Si    2.86910e-02   8.04081e+00   2.79704e+00  1.58189e-01   1.25230e+00  -1.68367e-01
Si    2.62147e+00   5.52103e+00   2.63013e+00  1.66742e+00  -1.52787e+00   1.61711e+00
Si    1.31581e+00   6.76834e+00   1.31159e+00 -9.32569e-01   1.79207e-01  -1.07660e+00
Si    3.82073e+00   9.44779e+00   1.34904e+00  2.37398e+00  -6.12271e-01  -7.26977e-01
Si    1.40575e+00   9.59295e+00   4.05046e+00 -1.28335e+00  -2.88429e+00   7.18025e-01
Si    4.17929e+00   6.67772e+00   4.08659e+00 -5.03435e-01   1.35850e+00  -2.07304e+00
Si    5.46652e+00   5.35089e+00  -4.25218e-02 -7.99536e-01   4.25077e-01   8.06224e-01
Si    8.10495e+00   8.23783e+00   1.08378e+01  5.46292e-01  -1.01034e+00   1.15578e+00
Si    5.55661e+00   8.26518e+00   2.72622e+00 -2.21417e+00  -9.80282e-01  -3.01251e-01
Si    8.02613e+00   5.45024e+00   2.87627e+00  1.09715e+00   4.77404e-01  -5.57654e-01
Si    6.71320e+00   6.78920e+00   1.30970e+00  1.29082e+00   2.30866e-01   4.68883e-01
Si    9.55353e+00   9.48319e+00   1.43008e+00  8.93661e-02  -2.15239e-01  -4.75401e-01
Si    6.95256e+00   9.57593e+00   4.04040e+00 -2.44620e+00   6.07010e-01   5.36771e-01
Si    9.58195e+00   6.77048e+00   4.27098e+00 -2.25834e+00   4.97564e-01  -8.93631e-01
Si    1.07871e+01   1.09015e+01   5.21983e+00  2.09841e+00   3.27751e-01   1.32703e+00
Si    2.74560e+00   2.64843e+00   5.37274e+00  8.86521e-01   7.57406e-01  -3.51754e-01
Si    1.84410e-02   2.68878e+00   8.31311e+00  1.22049e+00  -9.37198e-01  -1.04695e+00
Si    2.72641e+00  -1.90209e-02   8.16532e+00 -6.02973e-01   5.01959e-01  -1.49250e+00
Si    1.33597e+00   1.37133e+00   6.63149e+00 -6.16220e-01  -7.34783e-01   2.10655e+00
Si    3.96524e+00   4.14955e+00   6.81859e+00 -3.24716e-01  -1.61877e+00  -3.63602e-01
Si    1.34334e+00   4.15213e+00   9.56471e+00 -2.71290e-02   4.86193e-03  -6.63591e-01
Si    3.91242e+00   1.33372e+00   9.63373e+00  1.60719e+00   3.74226e-01  -1.15426e+00
Si    5.52872e+00   1.09082e+01   5.44385e+00  6.93731e-02  -6.99861e-01   4.19446e-01
Si    8.17336e+00   2.65628e+00   5.58528e+00  1.62111e-01  -2.25113e-01  -1.91539e-01
Si    5.26262e+00   2.78521e+00   8.26146e+00 -6.11348e-02  -6.18943e-01   1.95955e-01
Si    8.23645e+00   1.49151e-02   8.18787e+00 -4.43400e-01  -6.73463e-01   1.35710e-01
Si    6.69380e+00   1.34895e+00   7.07770e+00  6.79935e-01   6.08010e-01  -1.99884e+00
Si    9.64427e+00   4.03034e+00   6.92726e+00 -2.27360e+00  -6.66346e-03  -2.44659e-01
Si    6.79298e+00   4.05663e+00   9.49147e+00  1.09145e+00   5.78797e-01  -7.23862e-01
Si    9.58156e+00   1.23900e+00   9.61138e+00  1.31772e-01   8.18397e-01  -1.00003e-01
Si    1.08424e+01   5.32411e+00   5.51082e+00  1.71257e+00  -9.56613e-02  -1.01707e+00
Si    2.77645e+00   8.04112e+00   5.30255e+00 -1.21023e-01   1.77732e+00   9.18165e-01
Si    1.08206e+01   8.20848e+00   7.96347e+00  6.09826e-01   9.90561e-02   1.11568e+00
Si    2.53295e+00   5.48549e+00   8.02241e+00  1.14633e+00  -2.41081e-01   1.47704e+00
Si    1.31646e+00   6.84226e+00   6.67397e+00 -3.64485e-01  -1.59221e-01  -3.73252e-01
Si    4.09483e+00   9.51672e+00   6.75232e+00 -4.96235e-01   7.35028e-03  -7.76251e-01
Si    1.47985e+00   9.36846e+00   9.42044e+00 -1.45295e+00   2.13743e-01  -7.76248e-01
Si    4.10846e+00   6.65476e+00   9.41537e+00  4.22934e-02  -1.95404e-02  -9.67596e-01
Si    5.35930e+00   5.35527e+00   5.47824e+00  8.84853e-01   3.56423e-01   5.45400e-01
Si    8.09624e+00   8.35561e+00   5.46756e+00  9.24746e-01  -3.17402e+00   8.20058e-01
Si    5.38585e+00   8.21784e+00   8.14346e+00 -3.32376e-01  -8.98776e-01   4.87360e-01
Si    8.14499e+00   5.55306e+00   8.04848e+00 -5.94495e-02  -1.18826e+00   1.32378e+00
Si    6.63302e+00   6.83124e+00   6.82014e+00  1.37096e+00   5.76725e-01  -1.45282e+00
Si    9.57633e+00   9.65558e+00   6.64353e+00 -1.18314e+00  -2.55545e-01   1.30372e+00
Si    6.78842e+00   9.47977e+00   9.47860e+00 -1.60429e-01   1.17117e+00  -3.94571e-01
Si    9.47599e+00   6.92675e+00   9.46782e+00 -1.74227e-01  -3.07662e-01  -7.34790e-01
